<?xml version="1.0" encoding="UTF-8"?>
<routes xmlns:xsi="http://www.w3.org/2001/XMLSchema-instance" xsi:noNamespaceSchemaLocation="http://sumo.dlr.de/xsd/routes_file.xsd">
    <vType id="lead" vClass="passenger" sigma="0" carFollowModel="IDMM" maxSpeed="6.00"/>
    <vType id="idmm" vClass="passenger" sigma="0" carFollowModel="IDMM"/>
    <route id="r0" edges="e0"/>
    <vehicle id="lead"   type="lead" route="r0" depart="0" departPos="200" departSpeed="0" departLane="0"/>
    <vehicle id="follow" type="idmm" route="r0" depart="0" departPos="0"   departSpeed="0" departLane="0"/>
</routes>
