<?xml version="1.0" encoding="UTF-8"?>

<!-- generated on 2026-07-07 13:58:27 by Eclipse SUMO netconvert Version 1.20.0
<configuration xmlns:xsi="http://www.w3.org/2001/XMLSchema-instance" xsi:noNamespaceSchemaLocation="http://sumo.dlr.de/xsd/netconvertConfiguration.xsd">

    <input>
        <node-files value="nodes.nod.xml"/>
        <edge-files value="edges.edg.xml"/>
    </input>

    <output>
        <output-file value="net.net.xml"/>
    </output>

    <junctions>
        <no-turnarounds value="true"/>
    </junctions>

</configuration>
-->

<net version="1.20" junctionCornerDetail="5" limitTurnSpeed="5.50" xmlns:xsi="http://www.w3.org/2001/XMLSchema-instance" xsi:noNamespaceSchemaLocation="http://sumo.dlr.de/xsd/net_file.xsd">

    <location netOffset="0.00,0.00" convBoundary="0.00,0.00,5000.00,0.00" origBoundary="0.00,0.00,5000.00,0.00" projParameter="!"/>

    <edge id="e0" from="a" to="b" priority="-1">
        <lane id="e0_0" index="0" speed="13.89" length="5000.00" shape="0.00,-8.00 5000.00,-8.00"/>
        <lane id="e0_1" index="1" speed="13.89" length="5000.00" shape="0.00,-4.80 5000.00,-4.80"/>
        <lane id="e0_2" index="2" speed="13.89" length="5000.00" shape="0.00,-1.60 5000.00,-1.60"/>
    </edge>

    <junction id="a" type="dead_end" x="0.00" y="0.00" incLanes="" intLanes="" shape="0.00,0.00 0.00,-9.60"/>
    <junction id="b" type="dead_end" x="5000.00" y="0.00" incLanes="e0_0 e0_1 e0_2" intLanes="" shape="5000.00,-9.60 5000.00,0.00"/>

</net>
