<?xml version="1.0" encoding="UTF-8"?>
<routes xmlns:xsi="http://www.w3.org/2001/XMLSchema-instance" xsi:noNamespaceSchemaLocation="http://sumo.dlr.de/xsd/routes_file.xsd">
    <!-- D1 benchmark demand (NO golden): dense 3-lane traffic, mixed speeds so the LC/
         neighbor/reducer hot paths all fire. Generated; do not hand-edit. -->
    <vType id="fast" vClass="passenger" sigma="0"/>
    <vType id="slow" vClass="passenger" sigma="0" maxSpeed="8.00"/>
    <route id="r0" edges="e0"/>
    <vehicle id="v0" type="slow" route="r0" depart="0" departPos="0" departSpeed="0" departLane="0"/>
    <vehicle id="v1" type="fast" route="r0" depart="0" departPos="0" departSpeed="0" departLane="1"/>
    <vehicle id="v2" type="fast" route="r0" depart="0" departPos="0" departSpeed="0" departLane="2"/>
    <vehicle id="v3" type="fast" route="r0" depart="3" departPos="0" departSpeed="0" departLane="0"/>
    <vehicle id="v4" type="fast" route="r0" depart="3" departPos="0" departSpeed="0" departLane="1"/>
    <vehicle id="v5" type="slow" route="r0" depart="3" departPos="0" departSpeed="0" departLane="2"/>
    <vehicle id="v6" type="fast" route="r0" depart="6" departPos="0" departSpeed="0" departLane="0"/>
    <vehicle id="v7" type="fast" route="r0" depart="6" departPos="0" departSpeed="0" departLane="1"/>
    <vehicle id="v8" type="fast" route="r0" depart="6" departPos="0" departSpeed="0" departLane="2"/>
    <vehicle id="v9" type="fast" route="r0" depart="9" departPos="0" departSpeed="0" departLane="0"/>
    <vehicle id="v10" type="slow" route="r0" depart="9" departPos="0" departSpeed="0" departLane="1"/>
    <vehicle id="v11" type="fast" route="r0" depart="9" departPos="0" departSpeed="0" departLane="2"/>
    <vehicle id="v12" type="fast" route="r0" depart="12" departPos="0" departSpeed="0" departLane="0"/>
    <vehicle id="v13" type="fast" route="r0" depart="12" departPos="0" departSpeed="0" departLane="1"/>
    <vehicle id="v14" type="fast" route="r0" depart="12" departPos="0" departSpeed="0" departLane="2"/>
    <vehicle id="v15" type="slow" route="r0" depart="15" departPos="0" departSpeed="0" departLane="0"/>
    <vehicle id="v16" type="fast" route="r0" depart="15" departPos="0" departSpeed="0" departLane="1"/>
    <vehicle id="v17" type="fast" route="r0" depart="15" departPos="0" departSpeed="0" departLane="2"/>
    <vehicle id="v18" type="fast" route="r0" depart="18" departPos="0" departSpeed="0" departLane="0"/>
    <vehicle id="v19" type="fast" route="r0" depart="18" departPos="0" departSpeed="0" departLane="1"/>
    <vehicle id="v20" type="slow" route="r0" depart="18" departPos="0" departSpeed="0" departLane="2"/>
    <vehicle id="v21" type="fast" route="r0" depart="21" departPos="0" departSpeed="0" departLane="0"/>
    <vehicle id="v22" type="fast" route="r0" depart="21" departPos="0" departSpeed="0" departLane="1"/>
    <vehicle id="v23" type="fast" route="r0" depart="21" departPos="0" departSpeed="0" departLane="2"/>
    <vehicle id="v24" type="fast" route="r0" depart="24" departPos="0" departSpeed="0" departLane="0"/>
    <vehicle id="v25" type="slow" route="r0" depart="24" departPos="0" departSpeed="0" departLane="1"/>
    <vehicle id="v26" type="fast" route="r0" depart="24" departPos="0" departSpeed="0" departLane="2"/>
    <vehicle id="v27" type="fast" route="r0" depart="27" departPos="0" departSpeed="0" departLane="0"/>
    <vehicle id="v28" type="fast" route="r0" depart="27" departPos="0" departSpeed="0" departLane="1"/>
    <vehicle id="v29" type="fast" route="r0" depart="27" departPos="0" departSpeed="0" departLane="2"/>
    <vehicle id="v30" type="slow" route="r0" depart="30" departPos="0" departSpeed="0" departLane="0"/>
    <vehicle id="v31" type="fast" route="r0" depart="30" departPos="0" departSpeed="0" departLane="1"/>
    <vehicle id="v32" type="fast" route="r0" depart="30" departPos="0" departSpeed="0" departLane="2"/>
    <vehicle id="v33" type="fast" route="r0" depart="33" departPos="0" departSpeed="0" departLane="0"/>
    <vehicle id="v34" type="fast" route="r0" depart="33" departPos="0" departSpeed="0" departLane="1"/>
    <vehicle id="v35" type="slow" route="r0" depart="33" departPos="0" departSpeed="0" departLane="2"/>
    <vehicle id="v36" type="fast" route="r0" depart="36" departPos="0" departSpeed="0" departLane="0"/>
    <vehicle id="v37" type="fast" route="r0" depart="36" departPos="0" departSpeed="0" departLane="1"/>
    <vehicle id="v38" type="fast" route="r0" depart="36" departPos="0" departSpeed="0" departLane="2"/>
    <vehicle id="v39" type="fast" route="r0" depart="39" departPos="0" departSpeed="0" departLane="0"/>
    <vehicle id="v40" type="slow" route="r0" depart="39" departPos="0" departSpeed="0" departLane="1"/>
    <vehicle id="v41" type="fast" route="r0" depart="39" departPos="0" departSpeed="0" departLane="2"/>
    <vehicle id="v42" type="fast" route="r0" depart="42" departPos="0" departSpeed="0" departLane="0"/>
    <vehicle id="v43" type="fast" route="r0" depart="42" departPos="0" departSpeed="0" departLane="1"/>
    <vehicle id="v44" type="fast" route="r0" depart="42" departPos="0" departSpeed="0" departLane="2"/>
    <vehicle id="v45" type="slow" route="r0" depart="45" departPos="0" departSpeed="0" departLane="0"/>
    <vehicle id="v46" type="fast" route="r0" depart="45" departPos="0" departSpeed="0" departLane="1"/>
    <vehicle id="v47" type="fast" route="r0" depart="45" departPos="0" departSpeed="0" departLane="2"/>
    <vehicle id="v48" type="fast" route="r0" depart="48" departPos="0" departSpeed="0" departLane="0"/>
    <vehicle id="v49" type="fast" route="r0" depart="48" departPos="0" departSpeed="0" departLane="1"/>
    <vehicle id="v50" type="slow" route="r0" depart="48" departPos="0" departSpeed="0" departLane="2"/>
    <vehicle id="v51" type="fast" route="r0" depart="51" departPos="0" departSpeed="0" departLane="0"/>
    <vehicle id="v52" type="fast" route="r0" depart="51" departPos="0" departSpeed="0" departLane="1"/>
    <vehicle id="v53" type="fast" route="r0" depart="51" departPos="0" departSpeed="0" departLane="2"/>
    <vehicle id="v54" type="fast" route="r0" depart="54" departPos="0" departSpeed="0" departLane="0"/>
    <vehicle id="v55" type="slow" route="r0" depart="54" departPos="0" departSpeed="0" departLane="1"/>
    <vehicle id="v56" type="fast" route="r0" depart="54" departPos="0" departSpeed="0" departLane="2"/>
    <vehicle id="v57" type="fast" route="r0" depart="57" departPos="0" departSpeed="0" departLane="0"/>
    <vehicle id="v58" type="fast" route="r0" depart="57" departPos="0" departSpeed="0" departLane="1"/>
    <vehicle id="v59" type="fast" route="r0" depart="57" departPos="0" departSpeed="0" departLane="2"/>
    <vehicle id="v60" type="slow" route="r0" depart="60" departPos="0" departSpeed="0" departLane="0"/>
    <vehicle id="v61" type="fast" route="r0" depart="60" departPos="0" departSpeed="0" departLane="1"/>
    <vehicle id="v62" type="fast" route="r0" depart="60" departPos="0" departSpeed="0" departLane="2"/>
    <vehicle id="v63" type="fast" route="r0" depart="63" departPos="0" departSpeed="0" departLane="0"/>
    <vehicle id="v64" type="fast" route="r0" depart="63" departPos="0" departSpeed="0" departLane="1"/>
    <vehicle id="v65" type="slow" route="r0" depart="63" departPos="0" departSpeed="0" departLane="2"/>
    <vehicle id="v66" type="fast" route="r0" depart="66" departPos="0" departSpeed="0" departLane="0"/>
    <vehicle id="v67" type="fast" route="r0" depart="66" departPos="0" departSpeed="0" departLane="1"/>
    <vehicle id="v68" type="fast" route="r0" depart="66" departPos="0" departSpeed="0" departLane="2"/>
    <vehicle id="v69" type="fast" route="r0" depart="69" departPos="0" departSpeed="0" departLane="0"/>
    <vehicle id="v70" type="slow" route="r0" depart="69" departPos="0" departSpeed="0" departLane="1"/>
    <vehicle id="v71" type="fast" route="r0" depart="69" departPos="0" departSpeed="0" departLane="2"/>
    <vehicle id="v72" type="fast" route="r0" depart="72" departPos="0" departSpeed="0" departLane="0"/>
    <vehicle id="v73" type="fast" route="r0" depart="72" departPos="0" departSpeed="0" departLane="1"/>
    <vehicle id="v74" type="fast" route="r0" depart="72" departPos="0" departSpeed="0" departLane="2"/>
    <vehicle id="v75" type="slow" route="r0" depart="75" departPos="0" departSpeed="0" departLane="0"/>
    <vehicle id="v76" type="fast" route="r0" depart="75" departPos="0" departSpeed="0" departLane="1"/>
    <vehicle id="v77" type="fast" route="r0" depart="75" departPos="0" departSpeed="0" departLane="2"/>
    <vehicle id="v78" type="fast" route="r0" depart="78" departPos="0" departSpeed="0" departLane="0"/>
    <vehicle id="v79" type="fast" route="r0" depart="78" departPos="0" departSpeed="0" departLane="1"/>
    <vehicle id="v80" type="slow" route="r0" depart="78" departPos="0" departSpeed="0" departLane="2"/>
    <vehicle id="v81" type="fast" route="r0" depart="81" departPos="0" departSpeed="0" departLane="0"/>
    <vehicle id="v82" type="fast" route="r0" depart="81" departPos="0" departSpeed="0" departLane="1"/>
    <vehicle id="v83" type="fast" route="r0" depart="81" departPos="0" departSpeed="0" departLane="2"/>
    <vehicle id="v84" type="fast" route="r0" depart="84" departPos="0" departSpeed="0" departLane="0"/>
    <vehicle id="v85" type="slow" route="r0" depart="84" departPos="0" departSpeed="0" departLane="1"/>
    <vehicle id="v86" type="fast" route="r0" depart="84" departPos="0" departSpeed="0" departLane="2"/>
    <vehicle id="v87" type="fast" route="r0" depart="87" departPos="0" departSpeed="0" departLane="0"/>
    <vehicle id="v88" type="fast" route="r0" depart="87" departPos="0" departSpeed="0" departLane="1"/>
    <vehicle id="v89" type="fast" route="r0" depart="87" departPos="0" departSpeed="0" departLane="2"/>
    <vehicle id="v90" type="slow" route="r0" depart="90" departPos="0" departSpeed="0" departLane="0"/>
    <vehicle id="v91" type="fast" route="r0" depart="90" departPos="0" departSpeed="0" departLane="1"/>
    <vehicle id="v92" type="fast" route="r0" depart="90" departPos="0" departSpeed="0" departLane="2"/>
    <vehicle id="v93" type="fast" route="r0" depart="93" departPos="0" departSpeed="0" departLane="0"/>
    <vehicle id="v94" type="fast" route="r0" depart="93" departPos="0" departSpeed="0" departLane="1"/>
    <vehicle id="v95" type="slow" route="r0" depart="93" departPos="0" departSpeed="0" departLane="2"/>
    <vehicle id="v96" type="fast" route="r0" depart="96" departPos="0" departSpeed="0" departLane="0"/>
    <vehicle id="v97" type="fast" route="r0" depart="96" departPos="0" departSpeed="0" departLane="1"/>
    <vehicle id="v98" type="fast" route="r0" depart="96" departPos="0" departSpeed="0" departLane="2"/>
    <vehicle id="v99" type="fast" route="r0" depart="99" departPos="0" departSpeed="0" departLane="0"/>
    <vehicle id="v100" type="slow" route="r0" depart="99" departPos="0" departSpeed="0" departLane="1"/>
    <vehicle id="v101" type="fast" route="r0" depart="99" departPos="0" departSpeed="0" departLane="2"/>
    <vehicle id="v102" type="fast" route="r0" depart="102" departPos="0" departSpeed="0" departLane="0"/>
    <vehicle id="v103" type="fast" route="r0" depart="102" departPos="0" departSpeed="0" departLane="1"/>
    <vehicle id="v104" type="fast" route="r0" depart="102" departPos="0" departSpeed="0" departLane="2"/>
    <vehicle id="v105" type="slow" route="r0" depart="105" departPos="0" departSpeed="0" departLane="0"/>
    <vehicle id="v106" type="fast" route="r0" depart="105" departPos="0" departSpeed="0" departLane="1"/>
    <vehicle id="v107" type="fast" route="r0" depart="105" departPos="0" departSpeed="0" departLane="2"/>
    <vehicle id="v108" type="fast" route="r0" depart="108" departPos="0" departSpeed="0" departLane="0"/>
    <vehicle id="v109" type="fast" route="r0" depart="108" departPos="0" departSpeed="0" departLane="1"/>
    <vehicle id="v110" type="slow" route="r0" depart="108" departPos="0" departSpeed="0" departLane="2"/>
    <vehicle id="v111" type="fast" route="r0" depart="111" departPos="0" departSpeed="0" departLane="0"/>
    <vehicle id="v112" type="fast" route="r0" depart="111" departPos="0" departSpeed="0" departLane="1"/>
    <vehicle id="v113" type="fast" route="r0" depart="111" departPos="0" departSpeed="0" departLane="2"/>
    <vehicle id="v114" type="fast" route="r0" depart="114" departPos="0" departSpeed="0" departLane="0"/>
    <vehicle id="v115" type="slow" route="r0" depart="114" departPos="0" departSpeed="0" departLane="1"/>
    <vehicle id="v116" type="fast" route="r0" depart="114" departPos="0" departSpeed="0" departLane="2"/>
    <vehicle id="v117" type="fast" route="r0" depart="117" departPos="0" departSpeed="0" departLane="0"/>
    <vehicle id="v118" type="fast" route="r0" depart="117" departPos="0" departSpeed="0" departLane="1"/>
    <vehicle id="v119" type="fast" route="r0" depart="117" departPos="0" departSpeed="0" departLane="2"/>
    <vehicle id="v120" type="slow" route="r0" depart="120" departPos="0" departSpeed="0" departLane="0"/>
    <vehicle id="v121" type="fast" route="r0" depart="120" departPos="0" departSpeed="0" departLane="1"/>
    <vehicle id="v122" type="fast" route="r0" depart="120" departPos="0" departSpeed="0" departLane="2"/>
    <vehicle id="v123" type="fast" route="r0" depart="123" departPos="0" departSpeed="0" departLane="0"/>
    <vehicle id="v124" type="fast" route="r0" depart="123" departPos="0" departSpeed="0" departLane="1"/>
    <vehicle id="v125" type="slow" route="r0" depart="123" departPos="0" departSpeed="0" departLane="2"/>
    <vehicle id="v126" type="fast" route="r0" depart="126" departPos="0" departSpeed="0" departLane="0"/>
    <vehicle id="v127" type="fast" route="r0" depart="126" departPos="0" departSpeed="0" departLane="1"/>
    <vehicle id="v128" type="fast" route="r0" depart="126" departPos="0" departSpeed="0" departLane="2"/>
    <vehicle id="v129" type="fast" route="r0" depart="129" departPos="0" departSpeed="0" departLane="0"/>
    <vehicle id="v130" type="slow" route="r0" depart="129" departPos="0" departSpeed="0" departLane="1"/>
    <vehicle id="v131" type="fast" route="r0" depart="129" departPos="0" departSpeed="0" departLane="2"/>
    <vehicle id="v132" type="fast" route="r0" depart="132" departPos="0" departSpeed="0" departLane="0"/>
    <vehicle id="v133" type="fast" route="r0" depart="132" departPos="0" departSpeed="0" departLane="1"/>
    <vehicle id="v134" type="fast" route="r0" depart="132" departPos="0" departSpeed="0" departLane="2"/>
    <vehicle id="v135" type="slow" route="r0" depart="135" departPos="0" departSpeed="0" departLane="0"/>
    <vehicle id="v136" type="fast" route="r0" depart="135" departPos="0" departSpeed="0" departLane="1"/>
    <vehicle id="v137" type="fast" route="r0" depart="135" departPos="0" departSpeed="0" departLane="2"/>
    <vehicle id="v138" type="fast" route="r0" depart="138" departPos="0" departSpeed="0" departLane="0"/>
    <vehicle id="v139" type="fast" route="r0" depart="138" departPos="0" departSpeed="0" departLane="1"/>
    <vehicle id="v140" type="slow" route="r0" depart="138" departPos="0" departSpeed="0" departLane="2"/>
    <vehicle id="v141" type="fast" route="r0" depart="141" departPos="0" departSpeed="0" departLane="0"/>
    <vehicle id="v142" type="fast" route="r0" depart="141" departPos="0" departSpeed="0" departLane="1"/>
    <vehicle id="v143" type="fast" route="r0" depart="141" departPos="0" departSpeed="0" departLane="2"/>
    <vehicle id="v144" type="fast" route="r0" depart="144" departPos="0" departSpeed="0" departLane="0"/>
    <vehicle id="v145" type="slow" route="r0" depart="144" departPos="0" departSpeed="0" departLane="1"/>
    <vehicle id="v146" type="fast" route="r0" depart="144" departPos="0" departSpeed="0" departLane="2"/>
    <vehicle id="v147" type="fast" route="r0" depart="147" departPos="0" departSpeed="0" departLane="0"/>
    <vehicle id="v148" type="fast" route="r0" depart="147" departPos="0" departSpeed="0" departLane="1"/>
    <vehicle id="v149" type="fast" route="r0" depart="147" departPos="0" departSpeed="0" departLane="2"/>
    <vehicle id="v150" type="slow" route="r0" depart="150" departPos="0" departSpeed="0" departLane="0"/>
    <vehicle id="v151" type="fast" route="r0" depart="150" departPos="0" departSpeed="0" departLane="1"/>
    <vehicle id="v152" type="fast" route="r0" depart="150" departPos="0" departSpeed="0" departLane="2"/>
    <vehicle id="v153" type="fast" route="r0" depart="153" departPos="0" departSpeed="0" departLane="0"/>
    <vehicle id="v154" type="fast" route="r0" depart="153" departPos="0" departSpeed="0" departLane="1"/>
    <vehicle id="v155" type="slow" route="r0" depart="153" departPos="0" departSpeed="0" departLane="2"/>
    <vehicle id="v156" type="fast" route="r0" depart="156" departPos="0" departSpeed="0" departLane="0"/>
    <vehicle id="v157" type="fast" route="r0" depart="156" departPos="0" departSpeed="0" departLane="1"/>
    <vehicle id="v158" type="fast" route="r0" depart="156" departPos="0" departSpeed="0" departLane="2"/>
    <vehicle id="v159" type="fast" route="r0" depart="159" departPos="0" departSpeed="0" departLane="0"/>
    <vehicle id="v160" type="slow" route="r0" depart="159" departPos="0" departSpeed="0" departLane="1"/>
    <vehicle id="v161" type="fast" route="r0" depart="159" departPos="0" departSpeed="0" departLane="2"/>
    <vehicle id="v162" type="fast" route="r0" depart="162" departPos="0" departSpeed="0" departLane="0"/>
    <vehicle id="v163" type="fast" route="r0" depart="162" departPos="0" departSpeed="0" departLane="1"/>
    <vehicle id="v164" type="fast" route="r0" depart="162" departPos="0" departSpeed="0" departLane="2"/>
    <vehicle id="v165" type="slow" route="r0" depart="165" departPos="0" departSpeed="0" departLane="0"/>
    <vehicle id="v166" type="fast" route="r0" depart="165" departPos="0" departSpeed="0" departLane="1"/>
    <vehicle id="v167" type="fast" route="r0" depart="165" departPos="0" departSpeed="0" departLane="2"/>
    <vehicle id="v168" type="fast" route="r0" depart="168" departPos="0" departSpeed="0" departLane="0"/>
    <vehicle id="v169" type="fast" route="r0" depart="168" departPos="0" departSpeed="0" departLane="1"/>
    <vehicle id="v170" type="slow" route="r0" depart="168" departPos="0" departSpeed="0" departLane="2"/>
    <vehicle id="v171" type="fast" route="r0" depart="171" departPos="0" departSpeed="0" departLane="0"/>
    <vehicle id="v172" type="fast" route="r0" depart="171" departPos="0" departSpeed="0" departLane="1"/>
    <vehicle id="v173" type="fast" route="r0" depart="171" departPos="0" departSpeed="0" departLane="2"/>
    <vehicle id="v174" type="fast" route="r0" depart="174" departPos="0" departSpeed="0" departLane="0"/>
    <vehicle id="v175" type="slow" route="r0" depart="174" departPos="0" departSpeed="0" departLane="1"/>
    <vehicle id="v176" type="fast" route="r0" depart="174" departPos="0" departSpeed="0" departLane="2"/>
    <vehicle id="v177" type="fast" route="r0" depart="177" departPos="0" departSpeed="0" departLane="0"/>
    <vehicle id="v178" type="fast" route="r0" depart="177" departPos="0" departSpeed="0" departLane="1"/>
    <vehicle id="v179" type="fast" route="r0" depart="177" departPos="0" departSpeed="0" departLane="2"/>
    <vehicle id="v180" type="slow" route="r0" depart="180" departPos="0" departSpeed="0" departLane="0"/>
    <vehicle id="v181" type="fast" route="r0" depart="180" departPos="0" departSpeed="0" departLane="1"/>
    <vehicle id="v182" type="fast" route="r0" depart="180" departPos="0" departSpeed="0" departLane="2"/>
    <vehicle id="v183" type="fast" route="r0" depart="183" departPos="0" departSpeed="0" departLane="0"/>
    <vehicle id="v184" type="fast" route="r0" depart="183" departPos="0" departSpeed="0" departLane="1"/>
    <vehicle id="v185" type="slow" route="r0" depart="183" departPos="0" departSpeed="0" departLane="2"/>
    <vehicle id="v186" type="fast" route="r0" depart="186" departPos="0" departSpeed="0" departLane="0"/>
    <vehicle id="v187" type="fast" route="r0" depart="186" departPos="0" departSpeed="0" departLane="1"/>
    <vehicle id="v188" type="fast" route="r0" depart="186" departPos="0" departSpeed="0" departLane="2"/>
    <vehicle id="v189" type="fast" route="r0" depart="189" departPos="0" departSpeed="0" departLane="0"/>
    <vehicle id="v190" type="slow" route="r0" depart="189" departPos="0" departSpeed="0" departLane="1"/>
    <vehicle id="v191" type="fast" route="r0" depart="189" departPos="0" departSpeed="0" departLane="2"/>
    <vehicle id="v192" type="fast" route="r0" depart="192" departPos="0" departSpeed="0" departLane="0"/>
    <vehicle id="v193" type="fast" route="r0" depart="192" departPos="0" departSpeed="0" departLane="1"/>
    <vehicle id="v194" type="fast" route="r0" depart="192" departPos="0" departSpeed="0" departLane="2"/>
    <vehicle id="v195" type="slow" route="r0" depart="195" departPos="0" departSpeed="0" departLane="0"/>
    <vehicle id="v196" type="fast" route="r0" depart="195" departPos="0" departSpeed="0" departLane="1"/>
    <vehicle id="v197" type="fast" route="r0" depart="195" departPos="0" departSpeed="0" departLane="2"/>
    <vehicle id="v198" type="fast" route="r0" depart="198" departPos="0" departSpeed="0" departLane="0"/>
    <vehicle id="v199" type="fast" route="r0" depart="198" departPos="0" departSpeed="0" departLane="1"/>
    <vehicle id="v200" type="slow" route="r0" depart="198" departPos="0" departSpeed="0" departLane="2"/>
    <vehicle id="v201" type="fast" route="r0" depart="201" departPos="0" departSpeed="0" departLane="0"/>
    <vehicle id="v202" type="fast" route="r0" depart="201" departPos="0" departSpeed="0" departLane="1"/>
    <vehicle id="v203" type="fast" route="r0" depart="201" departPos="0" departSpeed="0" departLane="2"/>
    <vehicle id="v204" type="fast" route="r0" depart="204" departPos="0" departSpeed="0" departLane="0"/>
    <vehicle id="v205" type="slow" route="r0" depart="204" departPos="0" departSpeed="0" departLane="1"/>
    <vehicle id="v206" type="fast" route="r0" depart="204" departPos="0" departSpeed="0" departLane="2"/>
    <vehicle id="v207" type="fast" route="r0" depart="207" departPos="0" departSpeed="0" departLane="0"/>
    <vehicle id="v208" type="fast" route="r0" depart="207" departPos="0" departSpeed="0" departLane="1"/>
    <vehicle id="v209" type="fast" route="r0" depart="207" departPos="0" departSpeed="0" departLane="2"/>
    <vehicle id="v210" type="slow" route="r0" depart="210" departPos="0" departSpeed="0" departLane="0"/>
    <vehicle id="v211" type="fast" route="r0" depart="210" departPos="0" departSpeed="0" departLane="1"/>
    <vehicle id="v212" type="fast" route="r0" depart="210" departPos="0" departSpeed="0" departLane="2"/>
    <vehicle id="v213" type="fast" route="r0" depart="213" departPos="0" departSpeed="0" departLane="0"/>
    <vehicle id="v214" type="fast" route="r0" depart="213" departPos="0" departSpeed="0" departLane="1"/>
    <vehicle id="v215" type="slow" route="r0" depart="213" departPos="0" departSpeed="0" departLane="2"/>
    <vehicle id="v216" type="fast" route="r0" depart="216" departPos="0" departSpeed="0" departLane="0"/>
    <vehicle id="v217" type="fast" route="r0" depart="216" departPos="0" departSpeed="0" departLane="1"/>
    <vehicle id="v218" type="fast" route="r0" depart="216" departPos="0" departSpeed="0" departLane="2"/>
    <vehicle id="v219" type="fast" route="r0" depart="219" departPos="0" departSpeed="0" departLane="0"/>
    <vehicle id="v220" type="slow" route="r0" depart="219" departPos="0" departSpeed="0" departLane="1"/>
    <vehicle id="v221" type="fast" route="r0" depart="219" departPos="0" departSpeed="0" departLane="2"/>
    <vehicle id="v222" type="fast" route="r0" depart="222" departPos="0" departSpeed="0" departLane="0"/>
    <vehicle id="v223" type="fast" route="r0" depart="222" departPos="0" departSpeed="0" departLane="1"/>
    <vehicle id="v224" type="fast" route="r0" depart="222" departPos="0" departSpeed="0" departLane="2"/>
    <vehicle id="v225" type="slow" route="r0" depart="225" departPos="0" departSpeed="0" departLane="0"/>
    <vehicle id="v226" type="fast" route="r0" depart="225" departPos="0" departSpeed="0" departLane="1"/>
    <vehicle id="v227" type="fast" route="r0" depart="225" departPos="0" departSpeed="0" departLane="2"/>
    <vehicle id="v228" type="fast" route="r0" depart="228" departPos="0" departSpeed="0" departLane="0"/>
    <vehicle id="v229" type="fast" route="r0" depart="228" departPos="0" departSpeed="0" departLane="1"/>
    <vehicle id="v230" type="slow" route="r0" depart="228" departPos="0" departSpeed="0" departLane="2"/>
    <vehicle id="v231" type="fast" route="r0" depart="231" departPos="0" departSpeed="0" departLane="0"/>
    <vehicle id="v232" type="fast" route="r0" depart="231" departPos="0" departSpeed="0" departLane="1"/>
    <vehicle id="v233" type="fast" route="r0" depart="231" departPos="0" departSpeed="0" departLane="2"/>
    <vehicle id="v234" type="fast" route="r0" depart="234" departPos="0" departSpeed="0" departLane="0"/>
    <vehicle id="v235" type="slow" route="r0" depart="234" departPos="0" departSpeed="0" departLane="1"/>
    <vehicle id="v236" type="fast" route="r0" depart="234" departPos="0" departSpeed="0" departLane="2"/>
    <vehicle id="v237" type="fast" route="r0" depart="237" departPos="0" departSpeed="0" departLane="0"/>
    <vehicle id="v238" type="fast" route="r0" depart="237" departPos="0" departSpeed="0" departLane="1"/>
    <vehicle id="v239" type="fast" route="r0" depart="237" departPos="0" departSpeed="0" departLane="2"/>
    <vehicle id="v240" type="slow" route="r0" depart="240" departPos="0" departSpeed="0" departLane="0"/>
    <vehicle id="v241" type="fast" route="r0" depart="240" departPos="0" departSpeed="0" departLane="1"/>
    <vehicle id="v242" type="fast" route="r0" depart="240" departPos="0" departSpeed="0" departLane="2"/>
    <vehicle id="v243" type="fast" route="r0" depart="243" departPos="0" departSpeed="0" departLane="0"/>
    <vehicle id="v244" type="fast" route="r0" depart="243" departPos="0" departSpeed="0" departLane="1"/>
    <vehicle id="v245" type="slow" route="r0" depart="243" departPos="0" departSpeed="0" departLane="2"/>
    <vehicle id="v246" type="fast" route="r0" depart="246" departPos="0" departSpeed="0" departLane="0"/>
    <vehicle id="v247" type="fast" route="r0" depart="246" departPos="0" departSpeed="0" departLane="1"/>
    <vehicle id="v248" type="fast" route="r0" depart="246" departPos="0" departSpeed="0" departLane="2"/>
    <vehicle id="v249" type="fast" route="r0" depart="249" departPos="0" departSpeed="0" departLane="0"/>
    <vehicle id="v250" type="slow" route="r0" depart="249" departPos="0" departSpeed="0" departLane="1"/>
    <vehicle id="v251" type="fast" route="r0" depart="249" departPos="0" departSpeed="0" departLane="2"/>
    <vehicle id="v252" type="fast" route="r0" depart="252" departPos="0" departSpeed="0" departLane="0"/>
    <vehicle id="v253" type="fast" route="r0" depart="252" departPos="0" departSpeed="0" departLane="1"/>
    <vehicle id="v254" type="fast" route="r0" depart="252" departPos="0" departSpeed="0" departLane="2"/>
    <vehicle id="v255" type="slow" route="r0" depart="255" departPos="0" departSpeed="0" departLane="0"/>
    <vehicle id="v256" type="fast" route="r0" depart="255" departPos="0" departSpeed="0" departLane="1"/>
    <vehicle id="v257" type="fast" route="r0" depart="255" departPos="0" departSpeed="0" departLane="2"/>
    <vehicle id="v258" type="fast" route="r0" depart="258" departPos="0" departSpeed="0" departLane="0"/>
    <vehicle id="v259" type="fast" route="r0" depart="258" departPos="0" departSpeed="0" departLane="1"/>
    <vehicle id="v260" type="slow" route="r0" depart="258" departPos="0" departSpeed="0" departLane="2"/>
    <vehicle id="v261" type="fast" route="r0" depart="261" departPos="0" departSpeed="0" departLane="0"/>
    <vehicle id="v262" type="fast" route="r0" depart="261" departPos="0" departSpeed="0" departLane="1"/>
    <vehicle id="v263" type="fast" route="r0" depart="261" departPos="0" departSpeed="0" departLane="2"/>
    <vehicle id="v264" type="fast" route="r0" depart="264" departPos="0" departSpeed="0" departLane="0"/>
    <vehicle id="v265" type="slow" route="r0" depart="264" departPos="0" departSpeed="0" departLane="1"/>
    <vehicle id="v266" type="fast" route="r0" depart="264" departPos="0" departSpeed="0" departLane="2"/>
    <vehicle id="v267" type="fast" route="r0" depart="267" departPos="0" departSpeed="0" departLane="0"/>
    <vehicle id="v268" type="fast" route="r0" depart="267" departPos="0" departSpeed="0" departLane="1"/>
    <vehicle id="v269" type="fast" route="r0" depart="267" departPos="0" departSpeed="0" departLane="2"/>
    <vehicle id="v270" type="slow" route="r0" depart="270" departPos="0" departSpeed="0" departLane="0"/>
    <vehicle id="v271" type="fast" route="r0" depart="270" departPos="0" departSpeed="0" departLane="1"/>
    <vehicle id="v272" type="fast" route="r0" depart="270" departPos="0" departSpeed="0" departLane="2"/>
    <vehicle id="v273" type="fast" route="r0" depart="273" departPos="0" departSpeed="0" departLane="0"/>
    <vehicle id="v274" type="fast" route="r0" depart="273" departPos="0" departSpeed="0" departLane="1"/>
    <vehicle id="v275" type="slow" route="r0" depart="273" departPos="0" departSpeed="0" departLane="2"/>
    <vehicle id="v276" type="fast" route="r0" depart="276" departPos="0" departSpeed="0" departLane="0"/>
    <vehicle id="v277" type="fast" route="r0" depart="276" departPos="0" departSpeed="0" departLane="1"/>
    <vehicle id="v278" type="fast" route="r0" depart="276" departPos="0" departSpeed="0" departLane="2"/>
    <vehicle id="v279" type="fast" route="r0" depart="279" departPos="0" departSpeed="0" departLane="0"/>