<?xml version='1.0' encoding='UTF-8'?>
<additional>
  <poi id="poi_venue_0" type="venue" x="233.3" y="253.32" color="255,80,80" layer="10">
    <param key="edge" value="&quot;e_ra_sw_r1_ra_sw_r2&quot;" />
    <param key="weight" value="0.7895" />
    <param key="capacity" value="200" />
    <param key="lateral_anchor" value="{&quot;side&quot;: &quot;building&quot;, &quot;lateral_offset_m&quot;: 2.3}" />
    <param key="land_use" value="&quot;commercial&quot;" />
  </poi>
  <poi id="poi_venue_1" type="venue" x="170.22" y="175.67" color="255,80,80" layer="10">
    <param key="edge" value="&quot;e_ra_sw_r2_r_0_0&quot;" />
    <param key="weight" value="0.7718" />
    <param key="capacity" value="194" />
    <param key="lateral_anchor" value="{&quot;side&quot;: &quot;building&quot;, &quot;lateral_offset_m&quot;: 3.6}" />
    <param key="land_use" value="&quot;commercial&quot;" />
  </poi>
  <poi id="poi_venue_2" type="venue" x="257.59" y="95.8" color="255,80,80" layer="10">
    <param key="edge" value="&quot;e_r_0_0_r_1_0&quot;" />
    <param key="weight" value="0.6717" />
    <param key="capacity" value="152" />
    <param key="lateral_anchor" value="{&quot;side&quot;: &quot;building&quot;, &quot;lateral_offset_m&quot;: 2.3}" />
    <param key="land_use" value="&quot;commercial&quot;" />
  </poi>
  <poi id="poi_venue_3" type="venue" x="1261.72" y="2344.8" color="255,80,80" layer="10">
    <param key="edge" value="&quot;e_axis_w_zip_d_0_3&quot;" />
    <param key="weight" value="0.4562" />
    <param key="capacity" value="150" />
    <param key="lateral_anchor" value="{&quot;side&quot;: &quot;building&quot;, &quot;lateral_offset_m&quot;: 3.8}" />
    <param key="land_use" value="&quot;commercial&quot;" />
  </poi>
  <poi id="poi_venue_4" type="venue" x="1725.0" y="2338.4" color="255,80,80" layer="10">
    <param key="edge" value="&quot;e_d_0_3_d_1_3&quot;" />
    <param key="weight" value="0.7366" />
    <param key="capacity" value="146" />
    <param key="lateral_anchor" value="{&quot;side&quot;: &quot;building&quot;, &quot;lateral_offset_m&quot;: 7.1}" />
    <param key="land_use" value="&quot;commercial&quot;" />
  </poi>
  <poi id="poi_venue_5" type="venue" x="546.74" y="95.8" color="255,80,80" layer="10">
    <param key="edge" value="&quot;e_r_1_0_r_2_0&quot;" />
    <param key="weight" value="0.539" />
    <param key="capacity" value="143" />
    <param key="lateral_anchor" value="{&quot;side&quot;: &quot;building&quot;, &quot;lateral_offset_m&quot;: 2.3}" />
    <param key="land_use" value="&quot;commercial&quot;" />
  </poi>
  <poi id="poi_venue_6" type="venue" x="926.57" y="2381.56" color="255,80,80" layer="10">
    <param key="edge" value="&quot;e_d_0_3_ring_W&quot;" />
    <param key="weight" value="0.4178" />
    <param key="capacity" value="139" />
    <param key="lateral_anchor" value="{&quot;side&quot;: &quot;building&quot;, &quot;lateral_offset_m&quot;: 7.11}" />
    <param key="land_use" value="&quot;commercial&quot;" />
  </poi>
  <poi id="poi_venue_7" type="venue" x="1725.0" y="2361.6" color="255,80,80" layer="10">
    <param key="edge" value="&quot;e_d_1_3_d_0_3&quot;" />
    <param key="weight" value="0.6983" />
    <param key="capacity" value="134" />
    <param key="lateral_anchor" value="{&quot;side&quot;: &quot;building&quot;, &quot;lateral_offset_m&quot;: 7.1}" />
    <param key="land_use" value="&quot;commercial&quot;" />
  </poi>
  <poi id="poi_venue_8" type="venue" x="2218.2" y="2338.4" color="255,80,80" layer="10">
    <param key="edge" value="&quot;e_d_2_3_d_3_3&quot;" />
    <param key="weight" value="0.705" />
    <param key="capacity" value="130" />
    <param key="lateral_anchor" value="{&quot;side&quot;: &quot;building&quot;, &quot;lateral_offset_m&quot;: 7.1}" />
    <param key="land_use" value="&quot;commercial&quot;" />
  </poi>
  <poi id="poi_venue_9" type="venue" x="1975.0" y="2338.4" color="255,80,80" layer="10">
    <param key="edge" value="&quot;e_d_1_3_d_2_3&quot;" />
    <param key="weight" value="0.7032" />
    <param key="capacity" value="129" />
    <param key="lateral_anchor" value="{&quot;side&quot;: &quot;building&quot;, &quot;lateral_offset_m&quot;: 7.1}" />
    <param key="land_use" value="&quot;commercial&quot;" />
  </poi>
  <poi id="poi_venue_10" type="venue" x="232.11" y="1304.05" color="255,80,80" layer="10">
    <param key="edge" value="&quot;e_ring_W_ra_sw_r1&quot;" />
    <param key="weight" value="0.66" />
    <param key="capacity" value="129" />
    <param key="lateral_anchor" value="{&quot;side&quot;: &quot;building&quot;, &quot;lateral_offset_m&quot;: 7.1}" />
    <param key="land_use" value="&quot;commercial&quot;" />
  </poi>
  <poi id="poi_venue_11" type="venue" x="704.2" y="252.01" color="255,80,80" layer="10">
    <param key="edge" value="&quot;e_r_2_0_r_2_1&quot;" />
    <param key="weight" value="0.6141" />
    <param key="capacity" value="128" />
    <param key="lateral_anchor" value="{&quot;side&quot;: &quot;building&quot;, &quot;lateral_offset_m&quot;: 2.3}" />
    <param key="land_use" value="&quot;commercial&quot;" />
  </poi>
  <poi id="poi_venue_12" type="venue" x="1100.22" y="2008.95" color="255,80,80" layer="10">
    <param key="edge" value="&quot;e_axis_w_ramp_axis_w_zip&quot;" />
    <param key="weight" value="0.3653" />
    <param key="capacity" value="123" />
    <param key="lateral_anchor" value="{&quot;side&quot;: &quot;building&quot;, &quot;lateral_offset_m&quot;: 2.3}" />
    <param key="land_use" value="&quot;commercial&quot;" />
  </poi>
  <poi id="poi_venue_13" type="venue" x="1429.63" y="1350.12" color="255,80,80" layer="10">
    <param key="edge" value="&quot;e_r_5_3_axis_w_ramp&quot;" />
    <param key="weight" value="0.639" />
    <param key="capacity" value="123" />
    <param key="lateral_anchor" value="{&quot;side&quot;: &quot;building&quot;, &quot;lateral_offset_m&quot;: 2.3}" />
    <param key="land_use" value="&quot;commercial&quot;" />
  </poi>
  <poi id="poi_venue_14" type="venue" x="2218.2" y="2361.6" color="255,80,80" layer="10">
    <param key="edge" value="&quot;e_d_3_3_d_2_3&quot;" />
    <param key="weight" value="0.6762" />
    <param key="capacity" value="121" />
    <param key="lateral_anchor" value="{&quot;side&quot;: &quot;building&quot;, &quot;lateral_offset_m&quot;: 7.1}" />
    <param key="land_use" value="&quot;commercial&quot;" />
  </poi>
  <poi id="poi_venue_15" type="venue" x="1975.0" y="2361.6" color="255,80,80" layer="10">
    <param key="edge" value="&quot;e_d_2_3_d_1_3&quot;" />
    <param key="weight" value="0.6744" />
    <param key="capacity" value="121" />
    <param key="lateral_anchor" value="{&quot;side&quot;: &quot;building&quot;, &quot;lateral_offset_m&quot;: 7.1}" />
    <param key="land_use" value="&quot;commercial&quot;" />
  </poi>
  <poi id="poi_venue_16" type="venue" x="2334.53" y="234.53" color="255,80,80" layer="10">
    <param key="edge" value="&quot;e_ra_s_r2_ra_s_r3&quot;" />
    <param key="weight" value="0.3811" />
    <param key="capacity" value="109" />
    <param key="lateral_anchor" value="{&quot;side&quot;: &quot;building&quot;, &quot;lateral_offset_m&quot;: 2.3}" />
    <param key="land_use" value="&quot;commercial&quot;" />
  </poi>
  <poi id="poi_venue_17" type="venue" x="2358.67" y="227.73" color="255,80,80" layer="10">
    <param key="edge" value="&quot;e_ra_s_r3_ra_s_r0&quot;" />
    <param key="weight" value="0.3811" />
    <param key="capacity" value="109" />
    <param key="lateral_anchor" value="{&quot;side&quot;: &quot;building&quot;, &quot;lateral_offset_m&quot;: 2.3}" />
    <param key="land_use" value="&quot;commercial&quot;" />
  </poi>
  <poi id="poi_venue_18" type="venue" x="704.2" y="547.99" color="255,80,80" layer="10">
    <param key="edge" value="&quot;e_r_2_1_r_2_2&quot;" />
    <param key="weight" value="0.5471" />
    <param key="capacity" value="108" />
    <param key="lateral_anchor" value="{&quot;side&quot;: &quot;building&quot;, &quot;lateral_offset_m&quot;: 2.3}" />
    <param key="land_use" value="&quot;commercial&quot;" />
  </poi>
  <poi id="poi_venue_19" type="venue" x="262.76" y="261.91" color="255,80,80" layer="10">
    <param key="edge" value="&quot;e_ra_sw_r0_ra_sw_r1&quot;" />
    <param key="weight" value="0.4836" />
    <param key="capacity" value="108" />
    <param key="lateral_anchor" value="{&quot;side&quot;: &quot;building&quot;, &quot;lateral_offset_m&quot;: 2.3}" />
    <param key="land_use" value="&quot;commercial&quot;" />
  </poi>
  <poi id="poi_venue_20" type="venue" x="3182.61" y="1824.43" color="255,80,80" layer="10">
    <param key="edge" value="&quot;e_d_6_0_q_0_0&quot;" />
    <param key="weight" value="0.5031" />
    <param key="capacity" value="107" />
    <param key="lateral_anchor" value="{&quot;side&quot;: &quot;building&quot;, &quot;lateral_offset_m&quot;: 3.6}" />
    <param key="land_use" value="&quot;commercial&quot;" />
  </poi>
  <poi id="poi_transit_stop_0" type="transit_stop" x="3190.42" y="1894.65" color="200,200,200" layer="10">
    <param key="edge" value="&quot;e_q_0_0_d_6_0&quot;" />
    <param key="weight" value="0.4718" />
    <param key="lateral_anchor" value="{&quot;side&quot;: &quot;kerb&quot;, &quot;lateral_offset_m&quot;: 1.6}" />
    <param key="land_use" value="&quot;transit&quot;" />
  </poi>
  <poi id="poi_transit_stop_1" type="transit_stop" x="2361.6" y="2443.15" color="200,200,200" layer="10">
    <param key="edge" value="&quot;e_d_3_3_d_3_4&quot;" />
    <param key="weight" value="0.5664" />
    <param key="lateral_anchor" value="{&quot;side&quot;: &quot;kerb&quot;, &quot;lateral_offset_m&quot;: 3.1}" />
    <param key="land_use" value="&quot;transit&quot;" />
  </poi>
  <poi id="poi_transit_stop_2" type="transit_stop" x="2361.6" y="2691.07" color="200,200,200" layer="10">
    <param key="edge" value="&quot;e_d_3_4_d_3_5&quot;" />
    <param key="weight" value="0.5598" />
    <param key="lateral_anchor" value="{&quot;side&quot;: &quot;kerb&quot;, &quot;lateral_offset_m&quot;: 3.1}" />
    <param key="land_use" value="&quot;transit&quot;" />
  </poi>
  <poi id="poi_transit_stop_3" type="transit_stop" x="2338.4" y="2510.05" color="200,200,200" layer="10">
    <param key="edge" value="&quot;e_d_3_4_d_3_3&quot;" />
    <param key="weight" value="0.5573" />
    <param key="lateral_anchor" value="{&quot;side&quot;: &quot;kerb&quot;, &quot;lateral_offset_m&quot;: 3.1}" />
    <param key="land_use" value="&quot;transit&quot;" />
  </poi>
  <poi id="poi_transit_stop_4" type="transit_stop" x="2329.66" y="1127.9" color="200,200,200" layer="10">
    <param key="edge" value="&quot;e_d_3_0_ra_s_r2&quot;" />
    <param key="weight" value="0.2903" />
    <param key="lateral_anchor" value="{&quot;side&quot;: &quot;kerb&quot;, &quot;lateral_offset_m&quot;: 3.1}" />
    <param key="land_use" value="&quot;transit&quot;" />
  </poi>
  <poi id="poi_transit_stop_5" type="transit_stop" x="2338.4" y="2758.93" color="200,200,200" layer="10">
    <param key="edge" value="&quot;e_d_3_5_d_3_4&quot;" />
    <param key="weight" value="0.5506" />
    <param key="lateral_anchor" value="{&quot;side&quot;: &quot;kerb&quot;, &quot;lateral_offset_m&quot;: 3.1}" />
    <param key="land_use" value="&quot;transit&quot;" />
  </poi>
  <poi id="poi_transit_stop_6" type="transit_stop" x="2361.6" y="2941.07" color="200,200,200" layer="10">
    <param key="edge" value="&quot;e_d_3_5_d_3_6&quot;" />
    <param key="weight" value="0.51" />
    <param key="lateral_anchor" value="{&quot;side&quot;: &quot;kerb&quot;, &quot;lateral_offset_m&quot;: 3.1}" />
    <param key="land_use" value="&quot;transit&quot;" />
  </poi>
  <poi id="poi_transit_stop_7" type="transit_stop" x="2361.6" y="1691.07" color="200,200,200" layer="10">
    <param key="edge" value="&quot;e_d_3_0_d_3_1&quot;" />
    <param key="weight" value="0.5093" />
    <param key="lateral_anchor" value="{&quot;side&quot;: &quot;kerb&quot;, &quot;lateral_offset_m&quot;: 3.1}" />
    <param key="land_use" value="&quot;transit&quot;" />
  </poi>
  <poi id="poi_transit_stop_8" type="transit_stop" x="2446.79" y="2338.4" color="200,200,200" layer="10">
    <param key="edge" value="&quot;e_d_3_3_d_4_3&quot;" />
    <param key="weight" value="0.5446" />
    <param key="lateral_anchor" value="{&quot;side&quot;: &quot;kerb&quot;, &quot;lateral_offset_m&quot;: 3.1}" />
    <param key="land_use" value="&quot;transit&quot;" />
  </poi>
  <poi id="poi_transit_stop_9" type="transit_stop" x="2344.15" y="275.09" color="200,200,200" layer="10">
    <param key="edge" value="&quot;e_ra_s_r1_ra_s_r2&quot;" />
    <param key="weight" value="0.3129" />
    <param key="lateral_anchor" value="{&quot;side&quot;: &quot;kerb&quot;, &quot;lateral_offset_m&quot;: 0.3}" />
    <param key="land_use" value="&quot;transit&quot;" />
  </poi>
  <poi id="poi_transit_stop_10" type="transit_stop" x="2691.07" y="2338.4" color="200,200,200" layer="10">
    <param key="edge" value="&quot;e_d_4_3_d_5_3&quot;" />
    <param key="weight" value="0.5393" />
    <param key="lateral_anchor" value="{&quot;side&quot;: &quot;kerb&quot;, &quot;lateral_offset_m&quot;: 3.1}" />
    <param key="land_use" value="&quot;transit&quot;" />
  </poi>
  <poi id="poi_transit_stop_11" type="transit_stop" x="2338.4" y="3008.93" color="200,200,200" layer="10">
    <param key="edge" value="&quot;e_d_3_6_d_3_5&quot;" />
    <param key="weight" value="0.5005" />
    <param key="lateral_anchor" value="{&quot;side&quot;: &quot;kerb&quot;, &quot;lateral_offset_m&quot;: 3.1}" />
    <param key="land_use" value="&quot;transit&quot;" />
  </poi>
  <poi id="poi_building_entrance_0" type="building_entrance" x="578.63" y="576.37" color="80,160,255" layer="10">
    <param key="edge" value="&quot;e_r_park_hub_r_2_2&quot;" />
    <param key="weight" value="0.0421" />
    <param key="facing" value="[0.707, -0.707]" />
    <param key="lateral_anchor" value="{&quot;side&quot;: &quot;building&quot;, &quot;lateral_offset_m&quot;: 1.6}" />
    <param key="land_use" value="&quot;residential&quot;" />
    <param key="legitimate_sink" value="true" />
    <param key="inside_dwell" value="{&quot;min_s&quot;: 30, &quot;max_s&quot;: 300}" />
    <param key="building" value="&quot;bldg_residential_1&quot;" />
  </poi>
  <poi id="poi_building_entrance_1" type="building_entrance" x="576.37" y="221.37" color="80,160,255" layer="10">
    <param key="edge" value="&quot;e_r_park_hub_r_2_0&quot;" />
    <param key="weight" value="0.0632" />
    <param key="facing" value="[-0.707, -0.707]" />
    <param key="lateral_anchor" value="{&quot;side&quot;: &quot;building&quot;, &quot;lateral_offset_m&quot;: 1.6}" />
    <param key="land_use" value="&quot;residential&quot;" />
    <param key="legitimate_sink" value="true" />
    <param key="inside_dwell" value="{&quot;min_s&quot;: 30, &quot;max_s&quot;: 300}" />
  </poi>
  <poi id="poi_building_entrance_2" type="building_entrance" x="223.63" y="578.63" color="80,160,255" layer="10">
    <param key="edge" value="&quot;e_r_park_hub_r_0_2&quot;" />
    <param key="weight" value="0.0632" />
    <param key="facing" value="[0.707, 0.707]" />
    <param key="lateral_anchor" value="{&quot;side&quot;: &quot;building&quot;, &quot;lateral_offset_m&quot;: 1.6}" />
    <param key="land_use" value="&quot;residential&quot;" />
    <param key="legitimate_sink" value="true" />
    <param key="inside_dwell" value="{&quot;min_s&quot;: 30, &quot;max_s&quot;: 300}" />
  </poi>
  <poi id="poi_building_entrance_3" type="building_entrance" x="224.18" y="226.45" color="80,160,255" layer="10">
    <param key="edge" value="&quot;e_r_park_hub_r_0_0&quot;" />
    <param key="weight" value="0.0947" />
    <param key="facing" value="[-0.707, 0.707]" />
    <param key="lateral_anchor" value="{&quot;side&quot;: &quot;building&quot;, &quot;lateral_offset_m&quot;: 1.6}" />
    <param key="land_use" value="&quot;residential&quot;" />
    <param key="legitimate_sink" value="true" />
    <param key="inside_dwell" value="{&quot;min_s&quot;: 30, &quot;max_s&quot;: 300}" />
  </poi>
  <poi id="poi_building_entrance_4" type="building_entrance" x="519.37" y="521.63" color="80,160,255" layer="10">
    <param key="edge" value="&quot;e_r_2_2_r_park_hub&quot;" />
    <param key="weight" value="0.0421" />
    <param key="facing" value="[-0.707, 0.707]" />
    <param key="lateral_anchor" value="{&quot;side&quot;: &quot;building&quot;, &quot;lateral_offset_m&quot;: 1.6}" />
    <param key="land_use" value="&quot;residential&quot;" />
    <param key="legitimate_sink" value="true" />
    <param key="inside_dwell" value="{&quot;min_s&quot;: 30, &quot;max_s&quot;: 300}" />
    <param key="building" value="&quot;bldg_residential_1&quot;" />
  </poi>
  <poi id="poi_building_entrance_5" type="building_entrance" x="521.63" y="280.63" color="80,160,255" layer="10">
    <param key="edge" value="&quot;e_r_2_0_r_park_hub&quot;" />
    <param key="weight" value="0.0632" />
    <param key="facing" value="[0.707, 0.707]" />
    <param key="lateral_anchor" value="{&quot;side&quot;: &quot;building&quot;, &quot;lateral_offset_m&quot;: 1.6}" />
    <param key="land_use" value="&quot;residential&quot;" />
    <param key="legitimate_sink" value="true" />
    <param key="inside_dwell" value="{&quot;min_s&quot;: 30, &quot;max_s&quot;: 300}" />
  </poi>
  <poi id="poi_building_entrance_6" type="building_entrance" x="278.37" y="519.37" color="80,160,255" layer="10">
    <param key="edge" value="&quot;e_r_0_2_r_park_hub&quot;" />
    <param key="weight" value="0.0632" />
    <param key="facing" value="[-0.707, -0.707]" />
    <param key="lateral_anchor" value="{&quot;side&quot;: &quot;building&quot;, &quot;lateral_offset_m&quot;: 1.6}" />
    <param key="land_use" value="&quot;residential&quot;" />
    <param key="legitimate_sink" value="true" />
    <param key="inside_dwell" value="{&quot;min_s&quot;: 30, &quot;max_s&quot;: 300}" />
  </poi>
  <poi id="poi_building_entrance_7" type="building_entrance" x="282.47" y="280.21" color="80,160,255" layer="10">
    <param key="edge" value="&quot;e_r_0_0_r_park_hub&quot;" />
    <param key="weight" value="0.0947" />
    <param key="facing" value="[0.707, -0.707]" />
    <param key="lateral_anchor" value="{&quot;side&quot;: &quot;building&quot;, &quot;lateral_offset_m&quot;: 1.6}" />
    <param key="land_use" value="&quot;residential&quot;" />
    <param key="legitimate_sink" value="true" />
    <param key="inside_dwell" value="{&quot;min_s&quot;: 30, &quot;max_s&quot;: 300}" />
  </poi>
  <poi id="poi_building_entrance_8" type="building_entrance" x="220.33" y="401.6" color="80,160,255" layer="10">
    <param key="edge" value="&quot;e_r_park_hub_r_0_1&quot;" />
    <param key="weight" value="0.1053" />
    <param key="facing" value="[0.0, 1.0]" />
    <param key="lateral_anchor" value="{&quot;side&quot;: &quot;building&quot;, &quot;lateral_offset_m&quot;: 1.6}" />
    <param key="land_use" value="&quot;residential&quot;" />
    <param key="legitimate_sink" value="true" />
    <param key="inside_dwell" value="{&quot;min_s&quot;: 30, &quot;max_s&quot;: 300}" />
  </poi>
  <poi id="poi_building_entrance_9" type="building_entrance" x="277.14" y="398.4" color="80,160,255" layer="10">
    <param key="edge" value="&quot;e_r_0_1_r_park_hub&quot;" />
    <param key="weight" value="0.1053" />
    <param key="facing" value="[0.0, -1.0]" />
    <param key="lateral_anchor" value="{&quot;side&quot;: &quot;building&quot;, &quot;lateral_offset_m&quot;: 1.6}" />
    <param key="land_use" value="&quot;residential&quot;" />
    <param key="legitimate_sink" value="true" />
    <param key="inside_dwell" value="{&quot;min_s&quot;: 30, &quot;max_s&quot;: 300}" />
  </poi>
  <poi id="poi_building_entrance_10" type="building_entrance" x="2608.4" y="2997.62" color="80,160,255" layer="10">
    <param key="edge" value="&quot;e_d_4_5_d_4_6&quot;" />
    <param key="weight" value="0.1477" />
    <param key="facing" value="[1.0, -0.0]" />
    <param key="lateral_anchor" value="{&quot;side&quot;: &quot;building&quot;, &quot;lateral_offset_m&quot;: 5.6}" />
    <param key="land_use" value="&quot;residential&quot;" />
    <param key="legitimate_sink" value="true" />
    <param key="inside_dwell" value="{&quot;min_s&quot;: 30, &quot;max_s&quot;: 300}" />
  </poi>
  <poi id="poi_building_entrance_11" type="building_entrance" x="2608.4" y="1747.62" color="80,160,255" layer="10">
    <param key="edge" value="&quot;e_d_4_0_d_4_1&quot;" />
    <param key="weight" value="0.1477" />
    <param key="facing" value="[1.0, -0.0]" />
    <param key="lateral_anchor" value="{&quot;side&quot;: &quot;building&quot;, &quot;lateral_offset_m&quot;: 5.6}" />
    <param key="land_use" value="&quot;residential&quot;" />
    <param key="legitimate_sink" value="true" />
    <param key="inside_dwell" value="{&quot;min_s&quot;: 30, &quot;max_s&quot;: 300}" />
  </poi>
  <poi id="poi_building_entrance_12" type="building_entrance" x="2091.6" y="2952.38" color="80,160,255" layer="10">
    <param key="edge" value="&quot;e_d_2_6_d_2_5&quot;" />
    <param key="weight" value="0.1477" />
    <param key="facing" value="[-1.0, -0.0]" />
    <param key="lateral_anchor" value="{&quot;side&quot;: &quot;building&quot;, &quot;lateral_offset_m&quot;: 5.6}" />
    <param key="land_use" value="&quot;residential&quot;" />
    <param key="legitimate_sink" value="true" />
    <param key="inside_dwell" value="{&quot;min_s&quot;: 30, &quot;max_s&quot;: 300}" />
  </poi>
  <poi id="poi_building_entrance_13" type="building_entrance" x="2091.6" y="1702.38" color="80,160,255" layer="10">
    <param key="edge" value="&quot;e_d_2_1_d_2_0&quot;" />
    <param key="weight" value="0.1371" />
    <param key="facing" value="[-1.0, -0.0]" />
    <param key="lateral_anchor" value="{&quot;side&quot;: &quot;building&quot;, &quot;lateral_offset_m&quot;: 5.6}" />
    <param key="land_use" value="&quot;residential&quot;" />
    <param key="legitimate_sink" value="true" />
    <param key="inside_dwell" value="{&quot;min_s&quot;: 30, &quot;max_s&quot;: 300}" />
  </poi>
  <poi id="poi_building_entrance_14" type="building_entrance" x="3854.2" y="2169.26" color="80,160,255" layer="10">
    <param key="edge" value="&quot;e_q_3_0_q_3_1&quot;" />
    <param key="weight" value="0.0847" />
    <param key="facing" value="[1.0, -0.0]" />
    <param key="lateral_anchor" value="{&quot;side&quot;: &quot;building&quot;, &quot;lateral_offset_m&quot;: 2.3}" />
    <param key="land_use" value="&quot;residential&quot;" />
    <param key="legitimate_sink" value="true" />
    <param key="inside_dwell" value="{&quot;min_s&quot;: 30, &quot;max_s&quot;: 300}" />
  </poi>
  <poi id="poi_building_entrance_15" type="building_entrance" x="3369.26" y="2645.8" color="80,160,255" layer="10">
    <param key="edge" value="&quot;e_q_0_3_q_1_3&quot;" />
    <param key="weight" value="0.0952" />
    <param key="facing" value="[0.0, -1.0]" />
    <param key="lateral_anchor" value="{&quot;side&quot;: &quot;building&quot;, &quot;lateral_offset_m&quot;: 2.3}" />
    <param key="land_use" value="&quot;residential&quot;" />
    <param key="legitimate_sink" value="true" />
    <param key="inside_dwell" value="{&quot;min_s&quot;: 30, &quot;max_s&quot;: 300}" />
  </poi>
  <poi id="poi_building_entrance_16" type="building_entrance" x="3845.8" y="2131.24" color="80,160,255" layer="10">
    <param key="edge" value="&quot;e_q_3_1_q_3_0&quot;" />
    <param key="weight" value="0.0847" />
    <param key="facing" value="[-1.0, -0.0]" />
    <param key="lateral_anchor" value="{&quot;side&quot;: &quot;building&quot;, &quot;lateral_offset_m&quot;: 2.3}" />
    <param key="land_use" value="&quot;residential&quot;" />
    <param key="legitimate_sink" value="true" />
    <param key="inside_dwell" value="{&quot;min_s&quot;: 30, &quot;max_s&quot;: 300}" />
  </poi>
  <poi id="poi_building_entrance_17" type="building_entrance" x="3331.24" y="2654.2" color="80,160,255" layer="10">
    <param key="edge" value="&quot;e_q_1_3_q_0_3&quot;" />
    <param key="weight" value="0.0847" />
    <param key="facing" value="[0.0, 1.0]" />
    <param key="lateral_anchor" value="{&quot;side&quot;: &quot;building&quot;, &quot;lateral_offset_m&quot;: 2.3}" />
    <param key="land_use" value="&quot;residential&quot;" />
    <param key="legitimate_sink" value="true" />
    <param key="inside_dwell" value="{&quot;min_s&quot;: 30, &quot;max_s&quot;: 300}" />
  </poi>
  <poi id="poi_building_entrance_18" type="building_entrance" x="3952.08" y="4257.4" color="80,160,255" layer="10">
    <param key="edge" value="&quot;e_m_lot_m_0_1&quot;" />
    <param key="weight" value="0.0426" />
    <param key="facing" value="[0.0, 1.0]" />
    <param key="lateral_anchor" value="{&quot;side&quot;: &quot;building&quot;, &quot;lateral_offset_m&quot;: 3.6}" />
    <param key="land_use" value="&quot;residential&quot;" />
    <param key="legitimate_sink" value="true" />
    <param key="inside_dwell" value="{&quot;min_s&quot;: 30, &quot;max_s&quot;: 300}" />
  </poi>
  <poi id="poi_building_entrance_19" type="building_entrance" x="4447.84" y="4757.4" color="80,160,255" layer="10">
    <param key="edge" value="&quot;e_m_2_2_m_1_2&quot;" />
    <param key="weight" value="0.0321" />
    <param key="facing" value="[0.0, 1.0]" />
    <param key="lateral_anchor" value="{&quot;side&quot;: &quot;building&quot;, &quot;lateral_offset_m&quot;: 3.6}" />
    <param key="land_use" value="&quot;residential&quot;" />
    <param key="legitimate_sink" value="true" />
    <param key="inside_dwell" value="{&quot;min_s&quot;: 30, &quot;max_s&quot;: 300}" />
  </poi>
  <poi id="poi_building_entrance_20" type="building_entrance" x="4545.76" y="4742.6" color="80,160,255" layer="10">
    <param key="edge" value="&quot;e_m_1_2_m_2_2&quot;" />
    <param key="weight" value="0.0426" />
    <param key="facing" value="[0.0, -1.0]" />
    <param key="lateral_anchor" value="{&quot;side&quot;: &quot;building&quot;, &quot;lateral_offset_m&quot;: 3.6}" />
    <param key="land_use" value="&quot;residential&quot;" />
    <param key="legitimate_sink" value="true" />
    <param key="inside_dwell" value="{&quot;min_s&quot;: 30, &quot;max_s&quot;: 300}" />
  </poi>
  <poi id="poi_building_entrance_21" type="building_entrance" x="4047.92" y="4242.6" color="80,160,255" layer="10">
    <param key="edge" value="&quot;e_m_0_1_m_lot&quot;" />
    <param key="weight" value="0.0426" />
    <param key="facing" value="[0.0, -1.0]" />
    <param key="lateral_anchor" value="{&quot;side&quot;: &quot;building&quot;, &quot;lateral_offset_m&quot;: 3.6}" />
    <param key="land_use" value="&quot;residential&quot;" />
    <param key="legitimate_sink" value="true" />
    <param key="inside_dwell" value="{&quot;min_s&quot;: 30, &quot;max_s&quot;: 300}" />
  </poi>
  <poi id="poi_building_entrance_22" type="building_entrance" x="2608.4" y="2747.62" color="80,160,255" layer="10">
    <param key="edge" value="&quot;e_d_4_4_d_4_5&quot;" />
    <param key="weight" value="0.1479" />
    <param key="facing" value="[1.0, -0.0]" />
    <param key="lateral_anchor" value="{&quot;side&quot;: &quot;building&quot;, &quot;lateral_offset_m&quot;: 5.6}" />
    <param key="land_use" value="&quot;residential&quot;" />
    <param key="legitimate_sink" value="true" />
    <param key="inside_dwell" value="{&quot;min_s&quot;: 30, &quot;max_s&quot;: 300}" />
  </poi>
  <poi id="poi_building_entrance_23" type="building_entrance" x="2608.4" y="1997.62" color="80,160,255" layer="10">
    <param key="edge" value="&quot;e_d_4_1_d_4_2&quot;" />
    <param key="weight" value="0.1584" />
    <param key="facing" value="[1.0, -0.0]" />
    <param key="lateral_anchor" value="{&quot;side&quot;: &quot;building&quot;, &quot;lateral_offset_m&quot;: 5.6}" />
    <param key="land_use" value="&quot;residential&quot;" />
    <param key="legitimate_sink" value="true" />
    <param key="inside_dwell" value="{&quot;min_s&quot;: 30, &quot;max_s&quot;: 300}" />
  </poi>
  <poi id="poi_building_entrance_24" type="building_entrance" x="2091.6" y="2702.38" color="80,160,255" layer="10">
    <param key="edge" value="&quot;e_d_2_5_d_2_4&quot;" />
    <param key="weight" value="0.1584" />
    <param key="facing" value="[-1.0, -0.0]" />
    <param key="lateral_anchor" value="{&quot;side&quot;: &quot;building&quot;, &quot;lateral_offset_m&quot;: 5.6}" />
    <param key="land_use" value="&quot;residential&quot;" />
    <param key="legitimate_sink" value="true" />
    <param key="inside_dwell" value="{&quot;min_s&quot;: 30, &quot;max_s&quot;: 300}" />
  </poi>
  <poi id="poi_building_entrance_25" type="building_entrance" x="2091.6" y="1952.38" color="80,160,255" layer="10">
    <param key="edge" value="&quot;e_d_2_2_d_2_1&quot;" />
    <param key="weight" value="0.1584" />
    <param key="facing" value="[-1.0, -0.0]" />
    <param key="lateral_anchor" value="{&quot;side&quot;: &quot;building&quot;, &quot;lateral_offset_m&quot;: 5.6}" />
    <param key="land_use" value="&quot;residential&quot;" />
    <param key="legitimate_sink" value="true" />
    <param key="inside_dwell" value="{&quot;min_s&quot;: 30, &quot;max_s&quot;: 300}" />
  </poi>
  <poi id="poi_building_entrance_26" type="building_entrance" x="3448.4" y="2132.14" color="80,160,255" layer="10">
    <param key="edge" value="&quot;e_q_1_1_q_1_0&quot;" />
    <param key="weight" value="0.0848" />
    <param key="facing" value="[-1.0, -0.0]" />
    <param key="lateral_anchor" value="{&quot;side&quot;: &quot;building&quot;, &quot;lateral_offset_m&quot;: 1.6}" />
    <param key="land_use" value="&quot;residential&quot;" />
    <param key="legitimate_sink" value="true" />
    <param key="inside_dwell" value="{&quot;min_s&quot;: 30, &quot;max_s&quot;: 300}" />
  </poi>
  <poi id="poi_building_entrance_27" type="building_entrance" x="3451.6" y="2169.86" color="80,160,255" layer="10">
    <param key="edge" value="&quot;e_q_1_0_q_1_1&quot;" />
    <param key="weight" value="0.0848" />
    <param key="facing" value="[1.0, -0.0]" />