<?xml version='1.0' encoding='UTF-8'?>
<additional><parkingArea id="pa_e_axis_n_drop_d_3_6" lane="e_axis_n_drop_d_3_6_1" startPos="2.00" endPos="632.10" friendlyPos="true" roadsideCapacity="1" /><parkingArea id="pa_e_axis_n_drop_ring_N" lane="e_axis_n_drop_ring_N_1" startPos="2.00" endPos="678.90" friendlyPos="true" roadsideCapacity="6" /><parkingArea id="pa_e_axis_w_ramp_axis_w_zip" lane="e_axis_w_ramp_axis_w_zip_1" startPos="2.00" endPos="740.52" friendlyPos="true" roadsideCapacity="6" /><parkingArea id="pa_e_axis_w_zip_d_0_3" lane="e_axis_w_zip_d_0_3_1" startPos="2.00" endPos="649.68" friendlyPos="true" roadsideCapacity="4" /><parkingArea id="pa_e_d_0_0_d_0_1" lane="e_d_0_0_d_0_1_1" startPos="2.00" endPos="225.70" friendlyPos="true" roadsideCapacity="1" /><parkingArea id="pa_e_d_0_0_d_1_0" lane="e_d_0_0_d_1_0_1" startPos="2.00" endPos="225.70" friendlyPos="true" roadsideCapacity="3" /><parkingArea id="pa_e_d_0_1_d_0_0" lane="e_d_0_1_d_0_0_1" startPos="2.00" endPos="225.70" friendlyPos="true" roadsideCapacity="8" /><parkingArea id="pa_e_d_0_1_d_0_2" lane="e_d_0_1_d_0_2_1" startPos="2.00" endPos="224.20" friendlyPos="true" roadsideCapacity="5" /><parkingArea id="pa_e_d_0_1_d_1_1" lane="e_d_0_1_d_1_1_1" startPos="2.00" endPos="224.20" friendlyPos="true" roadsideCapacity="2" /><parkingArea id="pa_e_d_0_2_d_0_1" lane="e_d_0_2_d_0_1_1" startPos="2.00" endPos="224.20" friendlyPos="true" roadsideCapacity="6" /><parkingArea id="pa_e_d_0_2_d_0_3" lane="e_d_0_2_d_0_3_1" startPos="2.00" endPos="221.00" friendlyPos="true" roadsideCapacity="2" /><parkingArea id="pa_e_d_0_3_d_0_2" lane="e_d_0_3_d_0_2_1" startPos="2.00" endPos="221.00" friendlyPos="true" roadsideCapacity="1" /><parkingArea id="pa_e_d_0_3_d_0_4" lane="e_d_0_3_d_0_4_1" startPos="2.00" endPos="220.69" friendlyPos="true" roadsideCapacity="4" /><parkingArea id="pa_e_d_0_3_d_1_3" lane="e_d_0_3_d_1_3_1" startPos="2.00" endPos="224.20" friendlyPos="true" roadsideCapacity="8" /><parkingArea id="pa_e_d_0_3_ring_W" lane="e_d_0_3_ring_W_1" startPos="2.00" endPos="1321.37" friendlyPos="true" roadsideCapacity="6" /><parkingArea id="pa_e_d_0_4_d_0_3" lane="e_d_0_4_d_0_3_1" startPos="2.00" endPos="220.69" friendlyPos="true" roadsideCapacity="2" /><parkingArea id="pa_e_d_0_4_d_0_5" lane="e_d_0_4_d_0_5_1" startPos="2.00" endPos="224.20" friendlyPos="true" roadsideCapacity="3" /><parkingArea id="pa_e_d_0_4_d_1_4" lane="e_d_0_4_d_1_4_1" startPos="2.00" endPos="224.20" friendlyPos="true" roadsideCapacity="5" /><parkingArea id="pa_e_d_0_5_d_0_4" lane="e_d_0_5_d_0_4_1" startPos="2.00" endPos="224.20" friendlyPos="true" roadsideCapacity="5" /><parkingArea id="pa_e_d_0_5_d_0_6" lane="e_d_0_5_d_0_6_1" startPos="2.00" endPos="225.70" friendlyPos="true" roadsideCapacity="2" /><parkingArea id="pa_e_d_0_5_d_1_5" lane="e_d_0_5_d_1_5_1" startPos="2.00" endPos="224.20" friendlyPos="true" roadsideCapacity="2" /><parkingArea id="pa_e_d_0_6_d_0_5" lane="e_d_0_6_d_0_5_1" startPos="2.00" endPos="225.70" friendlyPos="true" roadsideCapacity="3" /><parkingArea id="pa_e_d_0_6_d_1_6" lane="e_d_0_6_d_1_6_1" startPos="2.00" endPos="225.70" friendlyPos="true" roadsideCapacity="1" /><parkingArea id="pa_e_d_1_0_d_0_0" lane="e_d_1_0_d_0_0_1" startPos="2.00" endPos="225.70" friendlyPos="true" roadsideCapacity="4" /><parkingArea id="pa_e_d_1_0_d_1_1" lane="e_d_1_0_d_1_1_1" startPos="2.00" endPos="224.20" friendlyPos="true" roadsideCapacity="1" /><parkingArea id="pa_e_d_1_0_d_2_0" lane="e_d_1_0_d_2_0_1" startPos="2.00" endPos="224.20" friendlyPos="true" roadsideCapacity="3" /><parkingArea id="pa_e_d_1_1_d_0_1" lane="e_d_1_1_d_0_1_1" startPos="2.00" endPos="224.20" friendlyPos="true" roadsideCapacity="1" /><parkingArea id="pa_e_d_1_1_d_1_0" lane="e_d_1_1_d_1_0_1" startPos="2.00" endPos="224.20" friendlyPos="true" roadsideCapacity="4" /><parkingArea id="pa_e_d_1_1_d_1_2" lane="e_d_1_1_d_1_2_1" startPos="2.00" endPos="224.20" friendlyPos="true" roadsideCapacity="2" /><parkingArea id="pa_e_d_1_1_d_2_1" lane="e_d_1_1_d_2_1_1" startPos="2.00" endPos="224.20" friendlyPos="true" roadsideCapacity="3" /><parkingArea id="pa_e_d_1_2_d_0_2" lane="e_d_1_2_d_0_2_1" startPos="2.00" endPos="224.20" friendlyPos="true" roadsideCapacity="2" /><parkingArea id="pa_e_d_1_2_d_1_1" lane="e_d_1_2_d_1_1_1" startPos="2.00" endPos="224.20" friendlyPos="true" roadsideCapacity="5" /><parkingArea id="pa_e_d_1_2_d_1_3" lane="e_d_1_2_d_1_3_1" startPos="2.00" endPos="221.00" friendlyPos="true" roadsideCapacity="3" /><parkingArea id="pa_e_d_1_2_d_2_2" lane="e_d_1_2_d_2_2_1" startPos="2.00" endPos="224.20" friendlyPos="true" roadsideCapacity="2" /><parkingArea id="pa_e_d_1_3_d_0_3" lane="e_d_1_3_d_0_3_1" startPos="2.00" endPos="224.20" friendlyPos="true" roadsideCapacity="7" /><parkingArea id="pa_e_d_1_3_d_1_2" lane="e_d_1_3_d_1_2_1" startPos="2.00" endPos="221.00" friendlyPos="true" roadsideCapacity="2" /><parkingArea id="pa_e_d_1_3_d_2_3" lane="e_d_1_3_d_2_3_1" startPos="2.00" endPos="224.20" friendlyPos="true" roadsideCapacity="6" /><parkingArea id="pa_e_d_1_4_d_0_4" lane="e_d_1_4_d_0_4_1" startPos="2.00" endPos="224.20" friendlyPos="true" roadsideCapacity="4" /><parkingArea id="pa_e_d_1_4_d_1_3" lane="e_d_1_4_d_1_3_1" startPos="2.00" endPos="221.00" friendlyPos="true" roadsideCapacity="4" /><parkingArea id="pa_e_d_1_4_d_1_5" lane="e_d_1_4_d_1_5_1" startPos="2.00" endPos="224.20" friendlyPos="true" roadsideCapacity="4" /><parkingArea id="pa_e_d_1_4_d_2_4" lane="e_d_1_4_d_2_4_1" startPos="2.00" endPos="224.20" friendlyPos="true" roadsideCapacity="5" /><parkingArea id="pa_e_d_1_5_d_0_5" lane="e_d_1_5_d_0_5_1" startPos="2.00" endPos="224.20" friendlyPos="true" roadsideCapacity="2" /><parkingArea id="pa_e_d_1_5_d_1_4" lane="e_d_1_5_d_1_4_1" startPos="2.00" endPos="224.20" friendlyPos="true" roadsideCapacity="1" /><parkingArea id="pa_e_d_1_5_d_1_6" lane="e_d_1_5_d_1_6_1" startPos="2.00" endPos="224.20" friendlyPos="true" roadsideCapacity="4" /><parkingArea id="pa_e_d_1_5_d_2_5" lane="e_d_1_5_d_2_5_1" startPos="2.00" endPos="224.20" friendlyPos="true" roadsideCapacity="4" /><parkingArea id="pa_e_d_1_6_d_0_6" lane="e_d_1_6_d_0_6_1" startPos="2.00" endPos="225.70" friendlyPos="true" roadsideCapacity="4" /><parkingArea id="pa_e_d_1_6_d_1_5" lane="e_d_1_6_d_1_5_1" startPos="2.00" endPos="224.20" friendlyPos="true" roadsideCapacity="2" /><parkingArea id="pa_e_d_1_6_d_2_6" lane="e_d_1_6_d_2_6_1" startPos="2.00" endPos="224.20" friendlyPos="true" roadsideCapacity="3" /><parkingArea id="pa_e_d_2_0_d_1_0" lane="e_d_2_0_d_1_0_1" startPos="2.00" endPos="224.20" friendlyPos="true" roadsideCapacity="5" /><parkingArea id="pa_e_d_2_0_d_3_0" lane="e_d_2_0_d_3_0_1" startPos="2.00" endPos="231.21" friendlyPos="true" roadsideCapacity="3" /><parkingArea id="pa_e_d_2_1_d_1_1" lane="e_d_2_1_d_1_1_1" startPos="2.00" endPos="224.20" friendlyPos="true" roadsideCapacity="2" /><parkingArea id="pa_e_d_2_1_d_2_0" lane="e_d_2_1_d_2_0_1" startPos="2.00" endPos="224.20" friendlyPos="true" roadsideCapacity="4" /><parkingArea id="pa_e_d_2_1_d_3_1" lane="e_d_2_1_d_3_1_1" startPos="2.00" endPos="231.40" friendlyPos="true" roadsideCapacity="4" /><parkingArea id="pa_e_d_2_2_d_1_2" lane="e_d_2_2_d_1_2_1" startPos="2.00" endPos="224.20" friendlyPos="true" roadsideCapacity="4" /><parkingArea id="pa_e_d_2_2_d_2_1" lane="e_d_2_2_d_2_1_1" startPos="2.00" endPos="224.20" friendlyPos="true" roadsideCapacity="4" /><parkingArea id="pa_e_d_2_2_d_3_2" lane="e_d_2_2_d_3_2_1" startPos="2.00" endPos="231.40" friendlyPos="true" roadsideCapacity="8" /><parkingArea id="pa_e_d_2_3_d_1_3" lane="e_d_2_3_d_1_3_1" startPos="2.00" endPos="224.20" friendlyPos="true" roadsideCapacity="5" /><parkingArea id="pa_e_d_2_3_d_3_3" lane="e_d_2_3_d_3_3_1" startPos="2.00" endPos="231.40" friendlyPos="true" roadsideCapacity="5" /><parkingArea id="pa_e_d_2_4_d_1_4" lane="e_d_2_4_d_1_4_1" startPos="2.00" endPos="224.20" friendlyPos="true" roadsideCapacity="3" /><parkingArea id="pa_e_d_2_4_d_2_3" lane="e_d_2_4_d_2_3_1" startPos="2.00" endPos="221.00" friendlyPos="true" roadsideCapacity="4" /><parkingArea id="pa_e_d_2_4_d_3_4" lane="e_d_2_4_d_3_4_1" startPos="2.00" endPos="231.40" friendlyPos="true" roadsideCapacity="1" /><parkingArea id="pa_e_d_2_5_d_1_5" lane="e_d_2_5_d_1_5_1" startPos="2.00" endPos="224.20" friendlyPos="true" roadsideCapacity="3" /><parkingArea id="pa_e_d_2_5_d_2_4" lane="e_d_2_5_d_2_4_1" startPos="2.00" endPos="224.20" friendlyPos="true" roadsideCapacity="5" /><parkingArea id="pa_e_d_2_5_d_3_5" lane="e_d_2_5_d_3_5_1" startPos="2.00" endPos="231.40" friendlyPos="true" roadsideCapacity="3" /><parkingArea id="pa_e_d_2_6_d_1_6" lane="e_d_2_6_d_1_6_1" startPos="2.00" endPos="224.20" friendlyPos="true" roadsideCapacity="1" /><parkingArea id="pa_e_d_2_6_d_2_5" lane="e_d_2_6_d_2_5_1" startPos="2.00" endPos="224.20" friendlyPos="true" roadsideCapacity="6" /><parkingArea id="pa_e_d_2_6_d_3_6" lane="e_d_2_6_d_3_6_1" startPos="2.00" endPos="231.40" friendlyPos="true" roadsideCapacity="2" /><parkingArea id="pa_e_d_3_0_d_2_0" lane="e_d_3_0_d_2_0_1" startPos="2.00" endPos="231.21" friendlyPos="true" roadsideCapacity="3" /><parkingArea id="pa_e_d_3_0_d_3_1" lane="e_d_3_0_d_3_1_1" startPos="2.00" endPos="224.20" friendlyPos="true" roadsideCapacity="2" /><parkingArea id="pa_e_d_3_0_d_4_0" lane="e_d_3_0_d_4_0_1" startPos="2.00" endPos="231.40" friendlyPos="true" roadsideCapacity="5" /><parkingArea id="pa_e_d_3_0_ra_s_r2" lane="e_d_3_0_ra_s_r2_1" startPos="2.00" endPos="1312.97" friendlyPos="true" roadsideCapacity="6" /><parkingArea id="pa_e_d_3_1_d_2_1" lane="e_d_3_1_d_2_1_1" startPos="2.00" endPos="231.40" friendlyPos="true" roadsideCapacity="1" /><parkingArea id="pa_e_d_3_1_d_3_0" lane="e_d_3_1_d_3_0_1" startPos="2.00" endPos="224.20" friendlyPos="true" roadsideCapacity="4" /><parkingArea id="pa_e_d_3_1_d_3_2" lane="e_d_3_1_d_3_2_1" startPos="2.00" endPos="224.20" friendlyPos="true" roadsideCapacity="6" /><parkingArea id="pa_e_d_3_1_d_4_1" lane="e_d_3_1_d_4_1_1" startPos="2.00" endPos="231.40" friendlyPos="true" roadsideCapacity="7" /><parkingArea id="pa_e_d_3_2_d_2_2" lane="e_d_3_2_d_2_2_1" startPos="2.00" endPos="231.40" friendlyPos="true" roadsideCapacity="9" /><parkingArea id="pa_e_d_3_2_d_3_1" lane="e_d_3_2_d_3_1_1" startPos="2.00" endPos="224.20" friendlyPos="true" roadsideCapacity="6" /><parkingArea id="pa_e_d_3_2_d_3_3" lane="e_d_3_2_d_3_3_1" startPos="2.00" endPos="221.00" friendlyPos="true" roadsideCapacity="7" /><parkingArea id="pa_e_d_3_2_d_4_2" lane="e_d_3_2_d_4_2_1" startPos="2.00" endPos="231.40" friendlyPos="true" roadsideCapacity="1" /><parkingArea id="pa_e_d_3_3_d_2_3" lane="e_d_3_3_d_2_3_1" startPos="2.00" endPos="231.40" friendlyPos="true" roadsideCapacity="5" /><parkingArea id="pa_e_d_3_3_d_3_2" lane="e_d_3_3_d_3_2_1" startPos="2.00" endPos="221.00" friendlyPos="true" roadsideCapacity="4" /><parkingArea id="pa_e_d_3_3_d_3_4" lane="e_d_3_3_d_3_4_1" startPos="2.00" endPos="221.00" friendlyPos="true" roadsideCapacity="7" /><parkingArea id="pa_e_d_3_3_d_4_3" lane="e_d_3_3_d_4_3_1" startPos="2.00" endPos="231.40" friendlyPos="true" roadsideCapacity="4" /><parkingArea id="pa_e_d_3_4_d_2_4" lane="e_d_3_4_d_2_4_1" startPos="2.00" endPos="231.40" friendlyPos="true" roadsideCapacity="1" /><parkingArea id="pa_e_d_3_4_d_3_3" lane="e_d_3_4_d_3_3_1" startPos="2.00" endPos="221.00" friendlyPos="true" roadsideCapacity="7" /><parkingArea id="pa_e_d_3_4_d_3_5" lane="e_d_3_4_d_3_5_1" startPos="2.00" endPos="224.20" friendlyPos="true" roadsideCapacity="4" /><parkingArea id="pa_e_d_3_4_d_4_4" lane="e_d_3_4_d_4_4_1" startPos="2.00" endPos="231.40" friendlyPos="true" roadsideCapacity="2" /><parkingArea id="pa_e_d_3_5_d_2_5" lane="e_d_3_5_d_2_5_1" startPos="2.00" endPos="231.40" friendlyPos="true" roadsideCapacity="2" /><parkingArea id="pa_e_d_3_5_d_3_4" lane="e_d_3_5_d_3_4_1" startPos="2.00" endPos="224.20" friendlyPos="true" roadsideCapacity="5" /><parkingArea id="pa_e_d_3_5_d_3_6" lane="e_d_3_5_d_3_6_1" startPos="2.00" endPos="224.20" friendlyPos="true" roadsideCapacity="8" /><parkingArea id="pa_e_d_3_5_d_4_5" lane="e_d_3_5_d_4_5_1" startPos="2.00" endPos="231.40" friendlyPos="true" roadsideCapacity="2" /><parkingArea id="pa_e_d_3_6_axis_n_drop" lane="e_d_3_6_axis_n_drop_1" startPos="2.00" endPos="632.10" friendlyPos="true" roadsideCapacity="9" /><parkingArea id="pa_e_d_3_6_d_2_6" lane="e_d_3_6_d_2_6_1" startPos="2.00" endPos="231.40" friendlyPos="true" roadsideCapacity="4" /><parkingArea id="pa_e_d_3_6_d_3_5" lane="e_d_3_6_d_3_5_1" startPos="2.00" endPos="224.20" friendlyPos="true" roadsideCapacity="5" /><parkingArea id="pa_e_d_3_6_d_4_6" lane="e_d_3_6_d_4_6_1" startPos="2.00" endPos="231.40" friendlyPos="true" roadsideCapacity="3" /><parkingArea id="pa_e_d_4_0_d_3_0" lane="e_d_4_0_d_3_0_1" startPos="2.00" endPos="231.40" friendlyPos="true" roadsideCapacity="7" /><parkingArea id="pa_e_d_4_0_d_4_1" lane="e_d_4_0_d_4_1_1" startPos="2.00" endPos="224.20" friendlyPos="true" roadsideCapacity="3" /><parkingArea id="pa_e_d_4_0_d_5_0" lane="e_d_4_0_d_5_0_1" startPos="2.00" endPos="224.20" friendlyPos="true" roadsideCapacity="2" /><parkingArea id="pa_e_d_4_1_d_3_1" lane="e_d_4_1_d_3_1_1" startPos="2.00" endPos="231.40" friendlyPos="true" roadsideCapacity="2" /><parkingArea id="pa_e_d_4_1_d_4_2" lane="e_d_4_1_d_4_2_1" startPos="2.00" endPos="224.20" friendlyPos="true" roadsideCapacity="3" /><parkingArea id="pa_e_d_4_1_d_5_1" lane="e_d_4_1_d_5_1_1" startPos="2.00" endPos="224.20" friendlyPos="true" roadsideCapacity="6" /><parkingArea id="pa_e_d_4_2_d_3_2" lane="e_d_4_2_d_3_2_1" startPos="2.00" endPos="231.40" friendlyPos="true" roadsideCapacity="3" /><parkingArea id="pa_e_d_4_2_d_4_3" lane="e_d_4_2_d_4_3_1" startPos="2.00" endPos="221.00" friendlyPos="true" roadsideCapacity="5" /><parkingArea id="pa_e_d_4_2_d_5_2" lane="e_d_4_2_d_5_2_1" startPos="2.00" endPos="224.20" friendlyPos="true" roadsideCapacity="7" /><parkingArea id="pa_e_d_4_3_d_3_3" lane="e_d_4_3_d_3_3_1" startPos="2.00" endPos="231.40" friendlyPos="true" roadsideCapacity="3" /><parkingArea id="pa_e_d_4_3_d_4_4" lane="e_d_4_3_d_4_4_1" startPos="2.00" endPos="221.00" friendlyPos="true" roadsideCapacity="3" /><parkingArea id="pa_e_d_4_3_d_5_3" lane="e_d_4_3_d_5_3_1" startPos="2.00" endPos="224.20" friendlyPos="true" roadsideCapacity="4" /><parkingArea id="pa_e_d_4_4_d_3_4" lane="e_d_4_4_d_3_4_1" startPos="2.00" endPos="231.40" friendlyPos="true" roadsideCapacity="6" /><parkingArea id="pa_e_d_4_4_d_4_5" lane="e_d_4_4_d_4_5_1" startPos="2.00" endPos="224.20" friendlyPos="true" roadsideCapacity="2" /><parkingArea id="pa_e_d_4_4_d_5_4" lane="e_d_4_4_d_5_4_1" startPos="2.00" endPos="224.20" friendlyPos="true" roadsideCapacity="5" /><parkingArea id="pa_e_d_4_5_d_3_5" lane="e_d_4_5_d_3_5_1" startPos="2.00" endPos="231.40" friendlyPos="true" roadsideCapacity="3" /><parkingArea id="pa_e_d_4_5_d_4_6" lane="e_d_4_5_d_4_6_1" startPos="2.00" endPos="224.20" friendlyPos="true" roadsideCapacity="3" /><parkingArea id="pa_e_d_4_5_d_5_5" lane="e_d_4_5_d_5_5_1" startPos="2.00" endPos="224.20" friendlyPos="true" roadsideCapacity="3" /><parkingArea id="pa_e_d_4_6_d_3_6" lane="e_d_4_6_d_3_6_1" startPos="2.00" endPos="231.40" friendlyPos="true" roadsideCapacity="3" /><parkingArea id="pa_e_d_4_6_d_5_6" lane="e_d_4_6_d_5_6_1" startPos="2.00" endPos="224.20" friendlyPos="true" roadsideCapacity="2" /><parkingArea id="pa_e_d_5_0_d_4_0" lane="e_d_5_0_d_4_0_1" startPos="2.00" endPos="224.20" friendlyPos="true" roadsideCapacity="6" /><parkingArea id="pa_e_d_5_0_d_5_1" lane="e_d_5_0_d_5_1_1" startPos="2.00" endPos="224.20" friendlyPos="true" roadsideCapacity="4" /><parkingArea id="pa_e_d_5_0_d_6_0" lane="e_d_5_0_d_6_0_1" startPos="2.00" endPos="224.20" friendlyPos="true" roadsideCapacity="5" /><parkingArea id="pa_e_d_5_1_d_4_1" lane="e_d_5_1_d_4_1_1" startPos="2.00" endPos="224.20" friendlyPos="true" roadsideCapacity="3" /><parkingArea id="pa_e_d_5_1_d_5_0" lane="e_d_5_1_d_5_0_1" startPos="2.00" endPos="224.20" friendlyPos="true" roadsideCapacity="2" /><parkingArea id="pa_e_d_5_1_d_6_1" lane="e_d_5_1_d_6_1_1" startPos="2.00" endPos="224.20" friendlyPos="true" roadsideCapacity="1" /><parkingArea id="pa_e_d_5_2_d_4_2" lane="e_d_5_2_d_4_2_1" startPos="2.00" endPos="224.20" friendlyPos="true" roadsideCapacity="1" /><parkingArea id="pa_e_d_5_2_d_5_1" lane="e_d_5_2_d_5_1_1" startPos="2.00" endPos="224.20" friendlyPos="true" roadsideCapacity="1" /><parkingArea id="pa_e_d_5_2_d_5_3" lane="e_d_5_2_d_5_3_1" startPos="2.00" endPos="221.00" friendlyPos="true" roadsideCapacity="2" /><parkingArea id="pa_e_d_5_2_d_6_2" lane="e_d_5_2_d_6_2_1" startPos="2.00" endPos="224.20" friendlyPos="true" roadsideCapacity="2" /><parkingArea id="pa_e_d_5_3_d_4_3" lane="e_d_5_3_d_4_3_1" startPos="2.00" endPos="224.20" friendlyPos="true" roadsideCapacity="2" /><parkingArea id="pa_e_d_5_3_d_5_2" lane="e_d_5_3_d_5_2_1" startPos="2.00" endPos="221.00" friendlyPos="true" roadsideCapacity="2" /><parkingArea id="pa_e_d_5_3_d_5_4" lane="e_d_5_3_d_5_4_1" startPos="2.00" endPos="221.00" friendlyPos="true" roadsideCapacity="3" /><parkingArea id="pa_e_d_5_3_d_6_3" lane="e_d_5_3_d_6_3_1" startPos="2.00" endPos="224.20" friendlyPos="true" roadsideCapacity="7" /><parkingArea id="pa_e_d_5_4_d_4_4" lane="e_d_5_4_d_4_4_1" startPos="2.00" endPos="224.20" friendlyPos="true" roadsideCapacity="5" /><parkingArea id="pa_e_d_5_4_d_5_3" lane="e_d_5_4_d_5_3_1" startPos="2.00" endPos="221.00" friendlyPos="true" roadsideCapacity="1" /><parkingArea id="pa_e_d_5_4_d_5_5" lane="e_d_5_4_d_5_5_1" startPos="2.00" endPos="224.20" friendlyPos="true" roadsideCapacity="1" /><parkingArea id="pa_e_d_5_4_d_6_4" lane="e_d_5_4_d_6_4_1" startPos="2.00" endPos="224.20" friendlyPos="true" roadsideCapacity="2" /><parkingArea id="pa_e_d_5_5_d_5_4" lane="e_d_5_5_d_5_4_1" startPos="2.00" endPos="224.20" friendlyPos="true" roadsideCapacity="2" /><parkingArea id="pa_e_d_5_5_d_5_6" lane="e_d_5_5_d_5_6_1" startPos="2.00" endPos="224.20" friendlyPos="true" roadsideCapacity="3" /><parkingArea id="pa_e_d_5_5_d_6_5" lane="e_d_5_5_d_6_5_1" startPos="2.00" endPos="224.20" friendlyPos="true" roadsideCapacity="4" /><parkingArea id="pa_e_d_5_6_d_4_6" lane="e_d_5_6_d_4_6_1" startPos="2.00" endPos="224.20" friendlyPos="true" roadsideCapacity="3" /><parkingArea id="pa_e_d_5_6_d_5_5" lane="e_d_5_6_d_5_5_1" startPos="2.00" endPos="224.20" friendlyPos="true" roadsideCapacity="4" /><parkingArea id="pa_e_d_5_6_d_6_6" lane="e_d_5_6_d_6_6_1" startPos="2.00" endPos="225.70" friendlyPos="true" roadsideCapacity="5" /><parkingArea id="pa_e_d_6_0_d_5_0" lane="e_d_6_0_d_5_0_1" startPos="2.00" endPos="224.20" friendlyPos="true" roadsideCapacity="2" /><parkingArea id="pa_e_d_6_0_d_6_1" lane="e_d_6_0_d_6_1_1" startPos="2.00" endPos="228.98" friendlyPos="true" roadsideCapacity="3" /><parkingArea id="pa_e_d_6_0_q_0_0" lane="e_d_6_0_q_0_0_1" startPos="2.00" endPos="459.41" friendlyPos="true" roadsideCapacity="6" /><parkingArea id="pa_e_d_6_1_d_5_1" lane="e_d_6_1_d_5_1_1" startPos="2.00" endPos="224.20" friendlyPos="true" roadsideCapacity="3" /><parkingArea id="pa_e_d_6_1_d_6_0" lane="e_d_6_1_d_6_0_1" startPos="2.00" endPos="225.90" friendlyPos="true" roadsideCapacity="3" /><parkingArea id="pa_e_d_6_2_d_5_2" lane="e_d_6_2_d_5_2_1" startPos="2.00" endPos="224.20" friendlyPos="true" roadsideCapacity="1" /><parkingArea id="pa_e_d_6_2_d_6_1" lane="e_d_6_2_d_6_1_1" startPos="2.00" endPos="224.20" friendlyPos="true" roadsideCapacity="5" /><parkingArea id="pa_e_d_6_2_d_6_3" lane="e_d_6_2_d_6_3_1" startPos="2.00" endPos="221.00" friendlyPos="true" roadsideCapacity="4" /><parkingArea id="pa_e_d_6_3_d_5_3" lane="e_d_6_3_d_5_3_1" startPos="2.00" endPos="224.20" friendlyPos="true" roadsideCapacity="5" /><parkingArea id="pa_e_d_6_3_d_6_2" lane="e_d_6_3_d_6_2_1" startPos="2.00" endPos="221.00" friendlyPos="true" roadsideCapacity="3" /><parkingArea id="pa_e_d_6_3_d_6_4" lane="e_d_6_3_d_6_4_1" startPos="2.00" endPos="221.00" friendlyPos="true" roadsideCapacity="1" /><parkingArea id="pa_e_d_6_3_ring_E" lane="e_d_6_3_ring_E_1" startPos="2.00" endPos="1320.92" friendlyPos="true" roadsideCapacity="7" /><parkingArea id="pa_e_d_6_4_d_5_4" lane="e_d_6_4_d_5_4_1" startPos="2.00" endPos="224.20" friendlyPos="true" roadsideCapacity="3" /><parkingArea id="pa_e_d_6_4_d_6_3" lane="e_d_6_4_d_6_3_1" startPos="2.00" endPos="221.00" friendlyPos="true" roadsideCapacity="3" /><parkingArea id="pa_e_d_6_4_d_6_5" lane="e_d_6_4_d_6_5_1" startPos="2.00" endPos="224.20" friendlyPos="true" roadsideCapacity="7" /><parkingArea id="pa_e_d_6_5_d_5_5" lane="e_d_6_5_d_5_5_1" startPos="2.00" endPos="224.20" friendlyPos="true" roadsideCapacity="2" /><parkingArea id="pa_e_d_6_5_d_6_4" lane="e_d_6_5_d_6_4_1" startPos="2.00" endPos="224.20" friendlyPos="true" roadsideCapacity="6" /><parkingArea id="pa_e_d_6_6_d_5_6" lane="e_d_6_6_d_5_6_1" startPos="2.00" endPos="225.70" friendlyPos="true" roadsideCapacity="3" /><parkingArea id="pa_e_d_6_6_d_6_5" lane="e_d_6_6_d_6_5_1" startPos="2.00" endPos="225.70" friendlyPos="true" roadsideCapacity="2" /><parkingArea id="pa_e_m_0_0_m_0_1" lane="e_m_0_0_m_0_1_1" startPos="2.00" endPos="458.71" friendlyPos="true" roadsideCapacity="3" /><parkingArea id="pa_e_m_0_0_m_1_0" lane="e_m_0_0_m_1_0_1" startPos="2.00" endPos="458.22" friendlyPos="true" roadsideCapacity="4" /><parkingArea id="pa_e_m_0_0_ra_ne_r2" lane="e_m_0_0_ra_ne_r2_1" startPos="2.00" endPos="935.08" friendlyPos="true" roadsideCapacity="5" /><parkingArea id="pa_e_m_0_1_m_0_0" lane="e_m_0_1_m_0_0_1" startPos="2.00" endPos="458.71" friendlyPos="true" roadsideCapacity="4" /><parkingArea id="pa_e_m_0_1_m_0_2" lane="e_m_0_1_m_0_2_1" startPos="2.00" endPos="479.20" friendlyPos="true" roadsideCapacity="4" /><parkingArea id="pa_e_m_0_1_m_lot" lane="e_m_0_1_m_lot_1" startPos="2.00" endPos="477.20" friendlyPos="true" roadsideCapacity="2" /><parkingArea id="pa_e_m_0_2_m_0_1" lane="e_m_0_2_m_0_1_1" startPos="2.00" endPos="479.20" friendlyPos="true" roadsideCapacity="2" /><parkingArea id="pa_e_m_0_2_m_1_2" lane="e_m_0_2_m_1_2_1" startPos="2.00" endPos="487.60" friendlyPos="true" roadsideCapacity="6" /><parkingArea id="pa_e_m_1_0_m_0_0" lane="e_m_1_0_m_0_0_1" startPos="2.00" endPos="458.22" friendlyPos="true" roadsideCapacity="5" /><parkingArea id="pa_e_m_1_0_m_2_0" lane="e_m_1_0_m_2_0_1" startPos="2.00" endPos="479.20" friendlyPos="true" roadsideCapacity="8" /><parkingArea id="pa_e_m_1_0_m_lot" lane="e_m_1_0_m_lot_1" startPos="2.00" endPos="477.20" friendlyPos="true" roadsideCapacity="2" /><parkingArea id="pa_e_m_1_2_m_0_2" lane="e_m_1_2_m_0_2_1" startPos="2.00" endPos="487.60" friendlyPos="true" roadsideCapacity="3" /><parkingArea id="pa_e_m_1_2_m_2_2" lane="e_m_1_2_m_2_2_1" startPos="2.00" endPos="487.60" friendlyPos="true" roadsideCapacity="5" /><parkingArea id="pa_e_m_2_0_m_1_0" lane="e_m_2_0_m_1_0_1" startPos="2.00" endPos="479.20" friendlyPos="true" roadsideCapacity="2" /><parkingArea id="pa_e_m_2_0_m_2_1" lane="e_m_2_0_m_2_1_1" startPos="2.00" endPos="487.60" friendlyPos="true" roadsideCapacity="5" /><parkingArea id="pa_e_m_2_1_m_2_0" lane="e_m_2_1_m_2_0_1" startPos="2.00" endPos="487.60" friendlyPos="true" roadsideCapacity="4" /><parkingArea id="pa_e_m_2_1_m_2_2" lane="e_m_2_1_m_2_2_1" startPos="2.00" endPos="487.60" friendlyPos="true" roadsideCapacity="2" /><parkingArea id="pa_e_m_2_2_m_1_2" lane="e_m_2_2_m_1_2_1" startPos="2.00" endPos="487.60" friendlyPos="true" roadsideCapacity="2" /><parkingArea id="pa_e_m_2_2_m_2_1" lane="e_m_2_2_m_2_1_1" startPos="2.00" endPos="487.60" friendlyPos="true" roadsideCapacity="5" /><parkingArea id="pa_e_m_lot_m_0_1" lane="e_m_lot_m_0_1_1" startPos="2.00" endPos="477.20" friendlyPos="true" roadsideCapacity="2" /><parkingArea id="pa_e_m_lot_m_1_0" lane="e_m_lot_m_1_0_1" startPos="2.00" endPos="477.20" friendlyPos="true" roadsideCapacity="6" /><parkingArea id="pa_e_q_0_0_d_6_0" lane="e_q_0_0_d_6_0_1" startPos="2.00" endPos="459.59" friendlyPos="true" roadsideCapacity="2" /><parkingArea id="pa_e_q_0_0_q_0_1" lane="e_q_0_0_q_0_1_0" startPos="2.00" endPos="186.10" friendlyPos="true" roadsideCapacity="6" /><parkingArea id="pa_e_q_0_0_q_1_0" lane="e_q_0_0_q_1_0_0" startPos="2.00" endPos="181.51" friendlyPos="true" roadsideCapacity="4" /><parkingArea id="pa_e_q_0_1_q_0_0" lane="e_q_0_1_q_0_0_0" startPos="2.00" endPos="186.10" friendlyPos="true" roadsideCapacity="3" /><parkingArea id="pa_e_q_0_1_q_0_2" lane="e_q_0_1_q_0_2_0" startPos="2.00" endPos="188.60" friendlyPos="true" roadsideCapacity="7" /><parkingArea id="pa_e_q_0_2_q_0_1" lane="e_q_0_2_q_0_1_0" startPos="2.00" endPos="188.60" friendlyPos="true" roadsideCapacity="10" /><parkingArea id="pa_e_q_0_2_q_0_3" lane="e_q_0_2_q_0_3_0" startPos="2.00" endPos="190.10" friendlyPos="true" roadsideCapacity="8" /><parkingArea id="pa_e_q_0_3_q_0_2" lane="e_q_0_3_q_0_2_0" startPos="2.00" endPos="190.10" friendlyPos="true" roadsideCapacity="4" /><parkingArea id="pa_e_q_0_3_q_1_3" lane="e_q_0_3_q_1_3_0" startPos="2.00" endPos="190.10" friendlyPos="true" roadsideCapacity="3" /><parkingArea id="pa_e_q_1_0_q_0_0" lane="e_q_1_0_q_0_0_0" startPos="2.00" endPos="181.51" friendlyPos="true" roadsideCapacity="9" /><parkingArea id="pa_e_q_1_0_q_2_0" lane="e_q_1_0_q_2_0_0" startPos="2.00" endPos="188.60" friendlyPos="true" roadsideCapacity="6" /><parkingArea id="pa_e_q_1_3_q_0_3" lane="e_q_1_3_q_0_3_0" startPos="2.00" endPos="190.10" friendlyPos="true" roadsideCapacity="7" /><parkingArea id="pa_e_q_1_3_q_2_3" lane="e_q_1_3_q_2_3_0" startPos="2.00" endPos="188.60" friendlyPos="true" roadsideCapacity="3" /><parkingArea id="pa_e_q_2_0_q_1_0" lane="e_q_2_0_q_1_0_0" startPos="2.00" endPos="188.60" friendlyPos="true" roadsideCapacity="10" /><parkingArea id="pa_e_q_2_0_q_3_0" lane="e_q_2_0_q_3_0_0" startPos="2.00" endPos="190.10" friendlyPos="true" roadsideCapacity="11" /><parkingArea id="pa_e_q_2_3_q_1_3" lane="e_q_2_3_q_1_3_0" startPos="2.00" endPos="188.60" friendlyPos="true" roadsideCapacity="7" /><parkingArea id="pa_e_q_2_3_q_3_3" lane="e_q_2_3_q_3_3_0" startPos="2.00" endPos="190.10" friendlyPos="true" roadsideCapacity="4" /><parkingArea id="pa_e_q_3_0_q_2_0" lane="e_q_3_0_q_2_0_0" startPos="2.00" endPos="190.10" friendlyPos="true" roadsideCapacity="9" /><parkingArea id="pa_e_q_3_0_q_3_1" lane="e_q_3_0_q_3_1_0" startPos="2.00" endPos="190.10" friendlyPos="true" roadsideCapacity="6" /><parkingArea id="pa_e_q_3_1_q_3_0" lane="e_q_3_1_q_3_0_0" startPos="2.00" endPos="190.10" friendlyPos="true" roadsideCapacity="5" /><parkingArea id="pa_e_q_3_1_q_3_2" lane="e_q_3_1_q_3_2_0" startPos="2.00" endPos="188.60" friendlyPos="true" roadsideCapacity="9" /><parkingArea id="pa_e_q_3_2_q_3_1" lane="e_q_3_2_q_3_1_0" startPos="2.00" endPos="188.60" friendlyPos="true" roadsideCapacity="6" /><parkingArea id="pa_e_q_3_2_q_3_3" lane="e_q_3_2_q_3_3_0" startPos="2.00" endPos="190.10" friendlyPos="true" roadsideCapacity="7" /><parkingArea id="pa_e_q_3_3_q_2_3" lane="e_q_3_3_q_2_3_0" startPos="2.00" endPos="190.10" friendlyPos="true" roadsideCapacity="8" /><parkingArea id="pa_e_q_3_3_q_3_2" lane="e_q_3_3_q_3_2_0" startPos="2.00" endPos="190.10" friendlyPos="true" roadsideCapacity="4" /><parkingArea id="pa_e_r_0_0_r_0_1" lane="e_r_0_0_r_0_1_1" startPos="2.00" endPos="281.57" friendlyPos="true" roadsideCapacity="4" /><parkingArea id="pa_e_r_0_0_r_1_0" lane="e_r_0_0_r_1_0_1" startPos="2.00" endPos="273.42" friendlyPos="true" roadsideCapacity="10" /><parkingArea id="pa_e_r_0_0_ra_sw_r2" lane="e_r_0_0_ra_sw_r2_1" startPos="2.00" endPos="166.71" friendlyPos="true" roadsideCapacity="6" /><parkingArea id="pa_e_r_0_1_r_0_0" lane="e_r_0_1_r_0_0_1" startPos="2.00" endPos="281.57" friendlyPos="true" roadsideCapacity="7" /><parkingArea id="pa_e_r_0_1_r_0_2" lane="e_r_0_1_r_0_2_1" startPos="2.00" endPos="282.07" friendlyPos="true" roadsideCapacity="7" /><parkingArea id="pa_e_r_0_2_r_0_1" lane="e_r_0_2_r_0_1_1" startPos="2.00" endPos="282.07" friendlyPos="true" roadsideCapacity="6" /><parkingArea id="pa_e_r_0_2_r_0_3" lane="e_r_0_2_r_0_3_1" startPos="2.00" endPos="283.60" friendlyPos="true" roadsideCapacity="9" /><parkingArea id="pa_e_r_0_2_r_1_2" lane="e_r_0_2_r_1_2_1" startPos="2.00" endPos="279.57" friendlyPos="true" roadsideCapacity="3" /><parkingArea id="pa_e_r_0_3_r_0_2" lane="e_r_0_3_r_0_2_1" startPos="2.00" endPos="283.60" friendlyPos="true" roadsideCapacity="1" /><parkingArea id="pa_e_r_0_3_r_0_4" lane="e_r_0_3_r_0_4_1" startPos="2.00" endPos="283.60" friendlyPos="true" roadsideCapacity="3" /><parkingArea id="pa_e_r_0_3_r_1_3" lane="e_r_0_3_r_1_3_1" startPos="2.00" endPos="283.60" friendlyPos="true" roadsideCapacity="2" /><parkingArea id="pa_e_r_0_4_r_0_3" lane="e_r_0_4_r_0_3_1" startPos="2.00" endPos="283.60" friendlyPos="true" roadsideCapacity="4" /><parkingArea id="pa_e_r_0_4_r_0_5" lane="e_r_0_4_r_0_5_1" startPos="2.00" endPos="285.60" friendlyPos="true" roadsideCapacity="4" /><parkingArea id="pa_e_r_0_4_r_1_4" lane="e_r_0_4_r_1_4_1" startPos="2.00" endPos="283.60" friendlyPos="true" roadsideCapacity="5" /><parkingArea id="pa_e_r_0_5_r_0_4" lane="e_r_0_5_r_0_4_1" startPos="2.00" endPos="285.60" friendlyPos="true" roadsideCapacity="4" /><parkingArea id="pa_e_r_0_5_r_1_5" lane="e_r_0_5_r_1_5_1" startPos="2.00" endPos="285.60" friendlyPos="true" roadsideCapacity="6" /><parkingArea id="pa_e_r_1_0_r_0_0" lane="e_r_1_0_r_0_0_1" startPos="2.00" endPos="273.42" friendlyPos="true" roadsideCapacity="7" /><parkingArea id="pa_e_r_1_0_r_2_0" lane="e_r_1_0_r_2_0_1" startPos="2.00" endPos="282.07" friendlyPos="true" roadsideCapacity="7" /><parkingArea id="pa_e_r_1_2_r_0_2" lane="e_r_1_2_r_0_2_1" startPos="2.00" endPos="279.57" friendlyPos="true" roadsideCapacity="2" /><parkingArea id="pa_e_r_1_2_r_1_3" lane="e_r_1_2_r_1_3_1" startPos="2.00" endPos="283.60" friendlyPos="true" roadsideCapacity="8" /><parkingArea id="pa_e_r_1_2_r_2_2" lane="e_r_1_2_r_2_2_1" startPos="2.00" endPos="279.57" friendlyPos="true" roadsideCapacity="2" /><parkingArea id="pa_e_r_1_3_r_0_3" lane="e_r_1_3_r_0_3_1" startPos="2.00" endPos="283.60" friendlyPos="true" roadsideCapacity="3" /><parkingArea id="pa_