<?xml version='1.0' encoding='UTF-8'?>
<routes xmlns:xsi="http://www.w3.org/2001/XMLSchema-instance" xsi:noNamespaceSchemaLocation="http://sumo.dlr.de/xsd/routes_file.xsd">
    <vehicle id="0" depart="0.00" departLane="1" departSpeed="max" departPos="stop">
        <route edges="e_r_2_4_r_1_4 e_r_1_4_r_1_3 e_r_1_3_r_2_3 e_r_2_3_r_3_3 e_r_3_3_r_4_3 e_r_4_3_r_5_3 e_r_5_3_axis_w_ramp e_axis_w_ramp_axis_w_zip e_axis_w_zip_d_0_3 e_d_0_3_d_0_2 e_d_0_2_d_0_1 e_d_0_1_d_0_0 e_d_0_0_d_1_0" />
    <stop parkingArea="pa_e_r_2_4_r_1_4" duration="5" /><stop parkingArea="pa_e_d_0_0_d_1_0" duration="100000" /></vehicle>
    <vehicle id="1" depart="0.82" departLane="1" departSpeed="max" departPos="stop">
        <route edges="e_m_0_1_m_0_2 e_m_0_2_m_1_2 e_m_1_2_m_2_2 e_m_2_2_m_2_1 e_m_2_1_m_2_0 e_m_2_0_m_1_0 e_m_1_0_m_0_0 e_m_0_0_ra_ne_r2 e_ra_ne_r2_ra_ne_r0 e_ra_ne_r0_ra_ne_r1 e_ra_ne_r1_ring_E e_ring_E_d_6_3 e_d_6_3_d_5_3 e_d_5_3_d_5_2 e_d_5_2_d_4_2 e_d_4_2_d_3_2 e_d_3_2_d_3_3" />
    <stop parkingArea="pa_e_m_0_1_m_0_2" duration="5" /><stop parkingArea="pa_e_d_3_2_d_3_3" duration="100000" /></vehicle>
    <vehicle id="2" depart="1.64" departLane="1" departSpeed="max" departPos="stop">
        <route edges="e_r_3_5_r_2_5 e_r_2_5_r_2_4 e_r_2_4_r_1_4 e_r_1_4_r_1_5 e_r_1_5_r_2_5" />
    <stop parkingArea="pa_e_r_3_5_r_2_5" duration="5" /><stop parkingArea="pa_e_r_1_5_r_2_5" duration="100000" /></vehicle>
    <vehicle id="3" depart="2.46" departLane="best" departSpeed="max">
        <route edges="e_r_lot0_stub_r_3_1 e_r_3_1_r_3_2 e_r_3_2_r_3_3 e_r_3_3_r_4_3 e_r_4_3_r_5_3 e_r_5_3_axis_w_ramp e_axis_w_ramp_axis_w_zip e_axis_w_zip_d_0_3 e_d_0_3_d_1_3 e_d_1_3_d_1_2 e_d_1_2_d_1_1 e_d_1_1_d_2_1" />
    <stop parkingArea="pa_e_d_1_1_d_2_1" duration="100000" /></vehicle>
    <vehicle id="4" depart="3.29" departLane="0" departSpeed="max" departPos="stop">
        <route edges="e_q_2_0_q_3_0 e_q_3_0_q_3_1 e_q_3_1_q_3_2 e_q_3_2_q_3_3 e_q_3_3_q_2_3 e_q_2_3_q_1_3 e_q_1_3_q_0_3 e_q_0_3_q_0_2 e_q_0_2_q_0_1 e_q_0_1_q_0_0 e_q_0_0_d_6_0 e_d_6_0_d_5_0 e_d_5_0_d_4_0 e_d_4_0_d_3_0 e_d_3_0_d_2_0 e_d_2_0_d_1_0 e_d_1_0_d_0_0 e_d_0_0_d_0_1 e_d_0_1_d_1_1" />
    <stop parkingArea="pa_e_q_2_0_q_3_0" duration="5" /><stop parkingArea="pa_e_d_0_1_d_1_1" duration="100000" /></vehicle>
    <vehicle id="6" depart="4.93" departLane="1" departSpeed="max" departPos="stop">
        <route edges="e_d_0_5_d_0_4 e_d_0_4_d_0_3 e_d_0_3_d_1_3 e_d_1_3_d_2_3 e_d_2_3_d_3_3 e_d_3_3_d_3_2 e_d_3_2_d_3_1 e_d_3_1_d_3_0 e_d_3_0_ra_s_r2" />
    <stop parkingArea="pa_e_d_0_5_d_0_4" duration="5" /><stop parkingArea="pa_e_d_3_0_ra_s_r2" duration="100000" /></vehicle>
    <vehicle id="7" depart="5.75" departLane="1" departSpeed="max" departPos="stop">
        <route edges="e_r_2_5_r_1_5 e_r_1_5_r_1_4 e_r_1_4_r_1_3 e_r_1_3_r_2_3 e_r_2_3_r_3_3 e_r_3_3_r_4_3 e_r_4_3_r_5_3 e_r_5_3_axis_w_ramp e_axis_w_ramp_axis_w_zip e_axis_w_zip_d_0_3 e_d_0_3_d_1_3 e_d_1_3_d_2_3 e_d_2_3_d_3_3 e_d_3_3_d_4_3 e_d_4_3_d_5_3 e_d_5_3_d_6_3 e_d_6_3_ring_E e_ring_E_ra_ne_r1 e_ra_ne_r1_ra_ne_r2 e_ra_ne_r2_m_0_0 e_m_0_0_m_0_1 e_m_0_1_m_lot" />
    <stop parkingArea="pa_e_r_2_5_r_1_5" duration="5" /><stop parkingArea="pa_e_m_0_1_m_lot" duration="100000" /></vehicle>
    <vehicle id="8" depart="6.57" departLane="1" departSpeed="max" departPos="stop">
        <route edges="e_d_6_2_d_6_3 e_d_6_3_ring_E e_ring_E_ra_ne_r1 e_ra_ne_r1_ra_ne_r2 e_ra_ne_r2_m_0_0 e_m_0_0_m_1_0 e_m_1_0_m_lot e_m_lot_m_garage_stub" />
    <stop parkingArea="pa_e_d_6_2_d_6_3" duration="5" /></vehicle>
    <vehicle id="12" depart="9.86" departLane="1" departSpeed="max" departPos="stop">
        <route edges="e_ra_s_r2_ra_s_r3 e_ra_s_r3_ra_s_r0 e_ra_s_r0_ra_s_r1 e_ra_s_r1_ra_s_r2 e_ra_s_r2_d_3_0 e_d_3_0_d_3_1 e_d_3_1_d_3_2 e_d_3_2_d_3_3 e_d_3_3_d_3_4 e_d_3_4_d_3_5 e_d_3_5_d_4_5 e_d_4_5_d_5_5" />
    <stop parkingArea="pa_e_ra_s_r2_ra_s_r3" duration="5" /><stop parkingArea="pa_e_d_4_5_d_5_5" duration="100000" /></vehicle>
    <vehicle id="13" depart="10.68" departLane="1" departSpeed="max" departPos="stop">
        <route edges="e_d_2_5_d_2_4 e_d_2_4_d_2_3 e_d_2_3_d_1_3 e_d_1_3_d_0_3" />
    <stop parkingArea="pa_e_d_2_5_d_2_4" duration="5" /><stop parkingArea="pa_e_d_1_3_d_0_3" duration="100000" /></vehicle>
    <vehicle id="14" depart="11.50" departLane="1" departSpeed="max" departPos="stop">
        <route edges="e_r_5_1_r_5_2 e_r_5_2_r_5_3 e_r_5_3_axis_w_ramp e_axis_w_ramp_axis_w_zip e_axis_w_zip_d_0_3 e_d_0_3_d_1_3 e_d_1_3_d_2_3 e_d_2_3_d_3_3 e_d_3_3_d_4_3 e_d_4_3_d_5_3 e_d_5_3_d_6_3 e_d_6_3_d_6_2 e_d_6_2_d_6_1 e_d_6_1_d_6_0 e_d_6_0_q_0_0 e_q_0_0_q_1_0 e_q_1_0_q_2_0 e_q_2_0_q_3_0 e_q_3_0_q_3_1 e_q_3_1_q_3_2 e_q_3_2_q_3_3 e_q_3_3_q_2_3 e_q_2_3_q_1_3 e_q_1_3_q_0_3 e_q_0_3_q_0_2" />
    <stop parkingArea="pa_e_r_5_1_r_5_2" duration="5" /><stop parkingArea="pa_e_q_0_3_q_0_2" duration="100000" /></vehicle>
    <vehicle id="16" depart="13.14" departLane="1" departSpeed="max" departPos="stop">
        <route edges="e_r_0_5_r_1_5 e_r_1_5_r_1_4 e_r_1_4_r_1_3 e_r_1_3_r_1_2 e_r_1_2_r_0_2 e_r_0_2_r_0_1 e_r_0_1_r_0_0 e_r_0_0_ra_sw_r2 e_ra_sw_r2_ra_sw_r0 e_ra_sw_r0_ra_s_r0 e_ra_s_r0_ra_s_r1 e_ra_s_r1_ring_SE e_ring_SE_ring_E" />
    <stop parkingArea="pa_e_r_0_5_r_1_5" duration="5" /><stop parkingArea="pa_e_ring_SE_ring_E" duration="100000" /></vehicle>
    <vehicle id="17" depart="13.96" departLane="0" departSpeed="max" departPos="stop">
        <route edges="e_q_0_2_q_0_3 e_q_0_3_q_1_3 e_q_1_3_q_2_3 e_q_2_3_q_3_3 e_q_3_3_q_3_2 e_q_3_2_q_3_1 e_q_3_1_q_3_0 e_q_3_0_q_2_0 e_q_2_0_q_1_0 e_q_1_0_q_0_0 e_q_0_0_d_6_0 e_d_6_0_d_6_1 e_d_6_1_d_6_2 e_d_6_2_d_6_3 e_d_6_3_ring_E e_ring_E_ra_ne_r1 e_ra_ne_r1_ra_ne_r2 e_ra_ne_r2_m_0_0 e_m_0_0_m_0_1 e_m_0_1_m_lot e_m_lot_m_1_0 e_m_1_0_m_0_0" />
    <stop parkingArea="pa_e_q_0_2_q_0_3" duration="5" /><stop parkingArea="pa_e_m_1_0_m_0_0" duration="100000" /></vehicle>
    <vehicle id="18" depart="14.79" departLane="1" departSpeed="max" departPos="stop">
        <route edges="e_r_4_5_r_5_5 e_r_5_5_r_5_4 e_r_5_4_r_5_3 e_r_5_3_axis_w_ramp e_axis_w_ramp_axis_w_zip e_axis_w_zip_d_0_3 e_d_0_3_d_1_3 e_d_1_3_d_2_3 e_d_2_3_d_3_3 e_d_3_3_d_4_3 e_d_4_3_d_5_3 e_d_5_3_d_6_3 e_d_6_3_d_6_2 e_d_6_2_d_6_1 e_d_6_1_d_6_0 e_d_6_0_q_0_0 e_q_0_0_q_0_1 e_q_0_1_q_0_2 e_q_0_2_q_0_3 e_q_0_3_q_1_3 e_q_1_3_q_2_3 e_q_2_3_q_3_3 e_q_3_3_q_3_2 e_q_3_2_q_3_1" />
    <stop parkingArea="pa_e_r_4_5_r_5_5" duration="5" /><stop parkingArea="pa_e_q_3_2_q_3_1" duration="100000" /></vehicle>
    <vehicle id="20" depart="16.43" departLane="1" departSpeed="max" departPos="stop">
        <route edges="e_r_3_2_r_3_1 e_r_3_1_r_4_1 e_r_4_1_r_4_2 e_r_4_2_r_4_3 e_r_4_3_r_5_3 e_r_5_3_axis_w_ramp e_axis_w_ramp_axis_w_zip e_axis_w_zip_d_0_3 e_d_0_3_d_1_3" />
    <stop parkingArea="pa_e_r_3_2_r_3_1" duration="5" /><stop parkingArea="pa_e_d_0_3_d_1_3" duration="100000" /></vehicle>
    <vehicle id="21" depart="17.25" departLane="1" departSpeed="max" departPos="stop">
        <route edges="e_d_6_4_d_6_3 e_d_6_3_d_5_3 e_d_5_3_d_5_4 e_d_5_4_d_5_5 e_d_5_5_d_5_6 e_d_5_6_d_4_6 e_d_4_6_d_3_6 e_d_3_6_d_3_5" />
    <stop parkingArea="pa_e_d_6_4_d_6_3" duration="5" /><stop parkingArea="pa_e_d_3_6_d_3_5" duration="100000" /></vehicle>
    <vehicle id="22" depart="18.07" departLane="1" departSpeed="max" departPos="stop">
        <route edges="e_d_2_2_d_3_2 e_d_3_2_d_3_3 e_d_3_3_d_2_3" />
    <stop parkingArea="pa_e_d_2_2_d_3_2" duration="5" /><stop parkingArea="pa_e_d_3_3_d_2_3" duration="100000" /></vehicle>
    <vehicle id="23" depart="18.89" departLane="1" departSpeed="max" departPos="stop">
        <route edges="e_d_3_0_d_2_0 e_d_2_0_d_1_0 e_d_1_0_d_1_1 e_d_1_1_d_2_1 e_d_2_1_d_3_1 e_d_3_1_d_3_2 e_d_3_2_d_3_3 e_d_3_3_d_3_4 e_d_3_4_d_3_5 e_d_3_5_d_3_6" />
    <stop parkingArea="pa_e_d_3_0_d_2_0" duration="5" /><stop parkingArea="pa_e_d_3_5_d_3_6" duration="100000" /></vehicle>
    <vehicle id="24" depart="19.71" departLane="1" departSpeed="max" departPos="stop">
        <route edges="e_r_2_3_r_3_3 e_r_3_3_r_4_3 e_r_4_3_r_5_3 e_r_5_3_axis_w_ramp e_axis_w_ramp_axis_w_zip e_axis_w_zip_d_0_3 e_d_0_3_d_1_3 e_d_1_3_d_2_3 e_d_2_3_d_3_3 e_d_3_3_d_3_2 e_d_3_2_d_4_2 e_d_4_2_d_5_2 e_d_5_2_d_5_3" />
    <stop parkingArea="pa_e_r_2_3_r_3_3" duration="5" /><stop parkingArea="pa_e_d_5_2_d_5_3" duration="100000" /></vehicle>
    <vehicle id="25" depart="20.54" departLane="0" departSpeed="max" departPos="stop">
        <route edges="e_q_0_2_q_0_1 e_q_0_1_q_0_0 e_q_0_0_d_6_0 e_d_6_0_d_5_0 e_d_5_0_d_4_0 e_d_4_0_d_3_0 e_d_3_0_d_3_1 e_d_3_1_d_3_2" />
    <stop parkingArea="pa_e_q_0_2_q_0_1" duration="5" /><stop parkingArea="pa_e_d_3_1_d_3_2" duration="100000" /></vehicle>
    <vehicle id="26" depart="21.36" departLane="best" departSpeed="max">
        <route edges="e_fringe_ring_W_ring_W e_ring_W_axis_w_zip e_axis_w_zip_d_0_3 e_d_0_3_d_1_3 e_d_1_3_d_2_3 e_d_2_3_d_3_3 e_d_3_3_d_4_3 e_d_4_3_d_5_3 e_d_5_3_d_6_3 e_d_6_3_ring_E e_ring_E_ra_ne_r1" />
    <stop parkingArea="pa_e_ring_E_ra_ne_r1" duration="100000" /></vehicle>
    <vehicle id="27" depart="22.18" departLane="1" departSpeed="max" departPos="stop">
        <route edges="e_r_2_4_r_3_4 e_r_3_4_r_4_4 e_r_4_4_r_5_4 e_r_5_4_r_5_3 e_r_5_3_axis_w_ramp e_axis_w_ramp_axis_w_zip e_axis_w_zip_d_0_3 e_d_0_3_d_1_3 e_d_1_3_d_2_3 e_d_2_3_d_3_3 e_d_3_3_d_4_3 e_d_4_3_d_5_3 e_d_5_3_d_6_3 e_d_6_3_d_6_2 e_d_6_2_d_6_1 e_d_6_1_d_6_0 e_d_6_0_q_0_0 e_q_0_0_q_1_0 e_q_1_0_q_2_0 e_q_2_0_q_3_0 e_q_3_0_q_3_1 e_q_3_1_q_3_2 e_q_3_2_q_3_3 e_q_3_3_q_2_3 e_q_2_3_q_1_3 e_q_1_3_q_0_3" />
    <stop parkingArea="pa_e_r_2_4_r_3_4" duration="5" /><stop parkingArea="pa_e_q_1_3_q_0_3" duration="100000" /></vehicle>
    <vehicle id="28" depart="23.00" departLane="1" departSpeed="max" departPos="stop">
        <route edges="e_d_5_2_d_6_2 e_d_6_2_d_6_3 e_d_6_3_d_5_3 e_d_5_3_d_4_3 e_d_4_3_d_3_3 e_d_3_3_d_2_3 e_d_2_3_d_1_3 e_d_1_3_d_0_3 e_d_0_3_ring_W e_ring_W_ra_sw_r1 e_ra_sw_r1_ra_sw_r2 e_ra_sw_r2_r_0_0 e_r_0_0_r_1_0 e_r_1_0_r_2_0 e_r_2_0_r_3_0 e_r_3_0_r_3_1 e_r_3_1_r_lot0_stub" />
    <stop parkingArea="pa_e_d_5_2_d_6_2" duration="5" /></vehicle>
    <vehicle id="v2_mall_shop_0" depart="23.09" departSpeed="max" departLane="best" departPos="base"><route edges="e_fringe_ring_N_ring_N e_ring_N_ra_ne_r0 e_ra_ne_r0_ra_ne_r1 e_ra_ne_r1_ra_ne_r2 e_ra_ne_r2_m_0_0 e_m_0_0_m_1_0 e_m_1_0_m_lot e_m_lot_m_0_1 e_m_0_1_m_0_0 e_m_0_0_ra_ne_r2 e_ra_ne_r2_ra_ne_r0 e_ra_ne_r0_ring_N e_ring_N_fringe_ring_N" /><stop parkingArea="pa_v2_mall_lot" duration="100" /></vehicle><vehicle id="29" depart="23.82" departLane="1" departSpeed="max" departPos="stop">
        <route edges="e_d_5_1_d_5_0 e_d_5_0_d_6_0 e_d_6_0_d_6_1 e_d_6_1_d_5_1 e_d_5_1_d_5_2 e_d_5_2_d_5_3 e_d_5_3_d_6_3" />
    <stop parkingArea="pa_e_d_5_1_d_5_0" duration="5" /><stop parkingArea="pa_e_d_5_3_d_6_3" duration="100000" /></vehicle>
    <vehicle id="30" depart="24.64" departLane="1" departSpeed="max" departPos="stop">
        <route edges="e_ring_N_axis_n_drop e_axis_n_drop_d_3_6 e_d_3_6_d_3_5 e_d_3_5_d_3_4 e_d_3_4_d_3_3 e_d_3_3_d_2_3 e_d_2_3_d_1_3 e_d_1_3_d_0_3 e_d_0_3_ring_W e_ring_W_ra_sw_r1 e_ra_sw_r1_ra_sw_r2 e_ra_sw_r2_r_0_0 e_r_0_0_r_0_1 e_r_0_1_r_0_2 e_r_0_2_r_0_3" />
    <stop parkingArea="pa_e_ring_N_axis_n_drop" duration="5" /><stop parkingArea="pa_e_r_0_2_r_0_3" duration="100000" /></vehicle>
    <vehicle id="v2_reslot1_park_0" depart="24.66" departSpeed="max" departLane="best" departPos="base"><route edges="e_fringe_ring_S_ra_s_r3 e_ra_s_r3_ra_s_r0 e_ra_s_r0_ra_sw_r0 e_ra_sw_r0_ra_sw_r1 e_ra_sw_r1_ra_sw_r2 e_ra_sw_r2_r_0_0 e_r_0_0_r_1_0 e_r_1_0_r_2_0 e_r_2_0_r_2_1 e_r_2_1_r_2_2 e_r_2_2_r_2_3 e_r_2_3_r_3_3 e_r_3_3_r_4_3 e_r_4_3_r_lot1_stub" /><stop parkingArea="pa_e_r_4_3_r_lot1_stub" duration="100000" /></vehicle><vehicle id="31" depart="25.46" departLane="1" departSpeed="max" departPos="stop">
        <route edges="e_r_1_3_r_0_3 e_r_0_3_r_0_2 e_r_0_2_r_0_1 e_r_0_1_r_0_0 e_r_0_0_r_1_0 e_r_1_0_r_2_0 e_r_2_0_r_3_0" />
    <stop parkingArea="pa_e_r_1_3_r_0_3" duration="5" /><stop parkingArea="pa_e_r_2_0_r_3_0" duration="100000" /></vehicle>
    <vehicle id="32" depart="26.28" departLane="1" departSpeed="max" departPos="stop">
        <route edges="e_r_5_1_r_4_1 e_r_4_1_r_4_2 e_r_4_2_r_4_3 e_r_4_3_r_lot1_stub" />
    <stop parkingArea="pa_e_r_5_1_r_4_1" duration="5" /></vehicle>
    <vehicle id="33" depart="27.11" departLane="1" departSpeed="max" departPos="stop">
        <route edges="e_d_6_4_d_6_5 e_d_6_5_d_5_5 e_d_5_5_d_5_4 e_d_5_4_d_5_3 e_d_5_3_d_4_3 e_d_4_3_d_3_3 e_d_3_3_d_2_3 e_d_2_3_d_1_3 e_d_1_3_d_0_3 e_d_0_3_d_0_2 e_d_0_2_d_0_1" />
    <stop parkingArea="pa_e_d_6_4_d_6_5" duration="5" /><stop parkingArea="pa_e_d_0_2_d_0_1" duration="100000" /></vehicle>
    <vehicle id="34" depart="27.93" departLane="best" departSpeed="max">
        <route edges="e_m_garage_stub_m_lot e_m_lot_m_1_0 e_m_1_0_m_0_0 e_m_0_0_ra_ne_r2 e_ra_ne_r2_ra_ne_r0 e_ra_ne_r0_ring_N e_ring_N_axis_n_drop e_axis_n_drop_d_3_6 e_d_3_6_d_3_5 e_d_3_5_d_3_4" />
    <stop parkingArea="pa_e_d_3_5_d_3_4" duration="100000" /></vehicle>
    <vehicle id="35" depart="28.75" departLane="1" departSpeed="max" departPos="stop">
        <route edges="e_d_6_0_d_6_1 e_d_6_1_d_6_2 e_d_6_2_d_6_3 e_d_6_3_d_5_3 e_d_5_3_d_4_3 e_d_4_3_d_3_3 e_d_3_3_d_3_4 e_d_3_4_d_3_5 e_d_3_5_d_3_6 e_d_3_6_axis_n_drop e_axis_n_drop_ring_N e_ring_N_ring_NW e_ring_NW_ring_W" />
    <stop parkingArea="pa_e_d_6_0_d_6_1" duration="5" /><stop parkingArea="pa_e_ring_NW_ring_W" duration="100000" /></vehicle>
    <vehicle id="36" depart="29.57" departLane="1" departSpeed="max" departPos="stop">
        <route edges="e_r_5_4_r_4_4 e_r_4_4_r_4_3 e_r_4_3_r_5_3 e_r_5_3_axis_w_ramp e_axis_w_ramp_axis_w_zip e_axis_w_zip_d_0_3 e_d_0_3_d_1_3 e_d_1_3_d_2_3 e_d_2_3_d_3_3 e_d_3_3_d_3_2 e_d_3_2_d_4_2 e_d_4_2_d_5_2" />
    <stop parkingArea="pa_e_r_5_4_r_4_4" duration="5" /><stop parkingArea="pa_e_d_4_2_d_5_2" duration="100000" /></vehicle>
    <vehicle id="37" depart="30.39" departLane="1" departSpeed="max" departPos="stop">
        <route edges="e_r_2_5_r_2_4 e_r_2_4_r_3_4 e_r_3_4_r_4_4 e_r_4_4_r_5_4 e_r_5_4_r_5_3 e_r_5_3_axis_w_ramp e_axis_w_ramp_axis_w_zip e_axis_w_zip_d_0_3 e_d_0_3_d_1_3 e_d_1_3_d_2_3 e_d_2_3_d_3_3 e_d_3_3_d_4_3 e_d_4_3_d_5_3 e_d_5_3_d_5_4 e_d_5_4_d_5_5 e_d_5_5_d_5_6" />
    <stop parkingArea="pa_e_r_2_5_r_2_4" duration="5" /><stop parkingArea="pa_e_d_5_5_d_5_6" duration="100000" /></vehicle>
    <vehicle id="38" depart="31.21" departLane="best" departSpeed="max">
        <route edges="e_r_lot1_stub_r_4_3 e_r_4_3_r_5_3 e_r_5_3_axis_w_ramp e_axis_w_ramp_axis_w_zip e_axis_w_zip_d_0_3 e_d_0_3_d_1_3 e_d_1_3_d_2_3 e_d_2_3_d_3_3 e_d_3_3_d_4_3 e_d_4_3_d_5_3 e_d_5_3_d_6_3 e_d_6_3_d_6_4 e_d_6_4_d_6_5 e_d_6_5_d_5_5" />
    <stop parkingArea="pa_e_d_6_5_d_5_5" duration="100000" /></vehicle>
    <vehicle id="v2_reslot0_park_0" depart="31.55" departSpeed="max" departLane="best" departPos="base"><route edges="e_fringe_ring_S_ra_s_r3 e_ra_s_r3_ra_s_r0 e_ra_s_r0_ra_sw_r0 e_ra_sw_r0_ra_sw_r1 e_ra_sw_r1_ra_sw_r2 e_ra_sw_r2_r_0_0 e_r_0_0_r_1_0 e_r_1_0_r_2_0 e_r_2_0_r_2_1 e_r_2_1_r_3_1 e_r_3_1_r_lot0_stub" /><stop parkingArea="pa_e_r_3_1_r_lot0_stub" duration="100000" /></vehicle><vehicle id="39" depart="32.03" departLane="best" departSpeed="max">
        <route edges="e_fringe_ring_S_ra_s_r3 e_ra_s_r3_ra_s_r0 e_ra_s_r0_ra_s_r1 e_ra_s_r1_ra_s_r2 e_ra_s_r2_d_3_0 e_d_3_0_d_3_1 e_d_3_1_d_3_2 e_d_3_2_d_3_3 e_d_3_3_d_4_3" />
    <stop parkingArea="pa_e_d_3_3_d_4_3" duration="100000" /></vehicle>
    <vehicle id="40" depart="32.86" departLane="1" departSpeed="max" departPos="stop">
        <route edges="e_r_1_3_r_1_2 e_r_1_2_r_0_2 e_r_0_2_r_0_1 e_r_0_1_r_0_0 e_r_0_0_ra_sw_r2 e_ra_sw_r2_ra_sw_r0 e_ra_sw_r0_ra_sw_r1 e_ra_sw_r1_ring_W e_ring_W_axis_w_zip e_axis_w_zip_d_0_3 e_d_0_3_d_1_3 e_d_1_3_d_2_3 e_d_2_3_d_3_3 e_d_3_3_d_3_4 e_d_3_4_d_3_5" />
    <stop parkingArea="pa_e_r_1_3_r_1_2" duration="5" /><stop parkingArea="pa_e_d_3_4_d_3_5" duration="100000" /></vehicle>
    <vehicle id="41" depart="33.68" departLane="1" departSpeed="max" departPos="stop">
        <route edges="e_r_1_5_r_0_5 e_r_0_5_r_0_4 e_r_0_4_r_0_3 e_r_0_3_r_0_2 e_r_0_2_r_0_1 e_r_0_1_r_0_0 e_r_0_0_ra_sw_r2 e_ra_sw_r2_ra_sw_r0 e_ra_sw_r0_ra_sw_r1 e_ra_sw_r1_ra_sw_r2" />
    <stop parkingArea="pa_e_r_1_5_r_0_5" duration="5" /><stop parkingArea="pa_e_ra_sw_r1_ra_sw_r2" duration="100000" /></vehicle>
    <vehicle id="v2_dining_pa_e_q_0_0_q_0_1_0" depart="34.19" departSpeed="max" departLane="best" departPos="base"><route edges="e_fringe_ring_E_ring_E e_ring_E_d_6_3 e_d_6_3_d_6_2 e_d_6_2_d_6_1 e_d_6_1_d_6_0 e_d_6_0_q_0_0 e_q_0_0_q_0_1 e_q_0_1_q_0_2 e_q_0_2_q_0_3 e_q_0_3_q_1_3 e_q_1_3_q_2_3 e_q_2_3_q_3_3 e_q_3_3_q_3_2 e_q_3_2_q_3_1 e_q_3_1_q_3_0 e_q_3_0_q_2_0 e_q_2_0_q_1_0 e_q_1_0_q_0_0 e_q_0_0_d_6_0 e_d_6_0_d_6_1 e_d_6_1_d_6_2 e_d_6_2_d_6_3 e_d_6_3_ring_E e_ring_E_fringe_ring_E" /><stop parkingArea="pa_e_q_0_0_q_0_1" duration="154" /></vehicle><vehicle id="42" depart="34.50" departLane="0" departSpeed="max" departPos="stop">
        <route edges="e_q_1_0_q_2_0 e_q_2_0_q_3_0 e_q_3_0_q_3_1 e_q_3_1_q_3_2 e_q_3_2_q_3_3 e_q_3_3_q_2_3 e_q_2_3_q_1_3 e_q_1_3_q_0_3 e_q_0_3_q_0_2 e_q_0_2_q_0_1 e_q_0_1_q_0_0 e_q_0_0_d_6_0 e_d_6_0_d_5_0 e_d_5_0_d_5_1 e_d_5_1_d_5_2 e_d_5_2_d_4_2 e_d_4_2_d_3_2 e_d_3_2_d_3_1" />
    <stop parkingArea="pa_e_q_1_0_q_2_0" duration="5" /><stop parkingArea="pa_e_d_3_2_d_3_1" duration="100000" /></vehicle>
    <vehicle id="v2_garage_mall_death_0" depart="35.97" departSpeed="max" departLane="best" departPos="base"><route edges="e_fringe_ring_N_ring_N e_ring_N_ra_ne_r0 e_ra_ne_r0_ra_ne_r1 e_ra_ne_r1_ra_ne_r2 e_ra_ne_r2_m_0_0 e_m_0_0_m_1_0 e_m_1_0_m_lot e_m_lot_m_garage_stub" /><stop parkingArea="pa_e_m_lot_m_garage_stub" duration="100000" /></vehicle><vehicle id="44" depart="36.14" departLane="1" departSpeed="max" departPos="stop">
        <route edges="e_d_2_5_d_2_4 e_d_2_4_d_1_4 e_d_1_4_d_0_4 e_d_0_4_d_0_3 e_d_0_3_d_1_3" />
    <stop parkingArea="pa_e_d_2_5_d_2_4" duration="5" /><stop parkingArea="pa_e_d_0_3_d_1_3" duration="100000" /></vehicle>
    <vehicle id="45" depart="36.96" departLane="1" departSpeed="max" departPos="stop">
        <route edges="e_d_3_2_d_3_3 e_d_3_3_d_2_3 e_d_2_3_d_1_3 e_d_1_3_d_0_3 e_d_0_3_ring_W e_ring_W_ra_sw_r1 e_ra_sw_r1_ra_sw_r2 e_ra_sw_r2_r_0_0 e_r_0_0_r_1_0" />
    <stop parkingArea="pa_e_d_3_2_d_3_3" duration="5" /><stop parkingArea="pa_e_r_0_0_r_1_0" duration="100000" /></vehicle>
    <vehicle id="47" depart="38.61" departLane="1" departSpeed="max" departPos="stop">
        <route edges="e_d_1_6_d_0_6 e_d_0_6_d_0_5 e_d_0_5_d_0_4 e_d_0_4_d_0_3 e_d_0_3_d_1_3 e_d_1_3_d_2_3 e_d_2_3_d_3_3 e_d_3_3_d_4_3 e_d_4_3_d_5_3 e_d_5_3_d_6_3" />
    <stop parkingArea="pa_e_d_1_6_d_0_6" duration="5" /><stop parkingArea="pa_e_d_5_3_d_6_3" duration="100000" /></vehicle>
    <vehicle id="49" depart="40.25" departLane="1" departSpeed="max" departPos="stop">
        <route edges="e_ra_sw_r0_ra_sw_r1 e_ra_sw_r1_ra_sw_r2 e_ra_sw_r2_ra_sw_r0 e_ra_sw_r0_ra_s_r0 e_ra_s_r0_ra_s_r1 e_ra_s_r1_ra_s_r2 e_ra_s_r2_d_3_0" />
    <stop parkingArea="pa_e_ra_sw_r0_ra_sw_r1" duration="5" /><stop parkingArea="pa_e_ra_s_r2_d_3_0" duration="100000" /></vehicle>
    <vehicle id="50" depart="41.07" departLane="1" departSpeed="max" departPos="stop">
        <route edges="e_d_0_1_d_0_2 e_d_0_2_d_0_3 e_d_0_3_ring_W e_ring_W_ra_sw_r1 e_ra_sw_r1_ra_sw_r2 e_ra_sw_r2_r_0_0 e_r_0_0_r_1_0 e_r_1_0_r_2_0 e_r_2_0_r_2_1 e_r_2_1_r_3_1 e_r_3_1_r_3_0" />
    <stop parkingArea="pa_e_d_0_1_d_0_2" duration="5" /><stop parkingArea="pa_e_r_3_1_r_3_0" duration="100000" /></vehicle>
    <vehicle id="52" depart="42.71" departLane="best" departSpeed="max">
        <route edges="e_fringe_ring_W_ring_W e_ring_W_ra_sw_r1 e_ra_sw_r1_ra_sw_r2 e_ra_sw_r2_r_0_0 e_r_0_0_r_0_1 e_r_0_1_r_0_2 e_r_0_2_r_0_3" />
    <stop parkingArea="pa_e_r_0_2_r_0_3" duration="100000" /></vehicle>
    <vehicle id="v2_dining_pa_e_q_0_0_q_1_0_0" depart="42.96" departSpeed="max" departLane="best" departPos="base"><route edges="e_fringe_ring_E_ring_E e_ring_E_d_6_3 e_d_6_3_d_6_2 e_d_6_2_d_6_1 e_d_6_1_d_6_0 e_d_6_0_q_0_0 e_q_0_0_q_1_0 e_q_1_0_q_2_0 e_q_2_0_q_3_0 e_q_3_0_q_3_1 e_q_3_1_q_3_2 e_q_3_2_q_3_3 e_q_3_3_q_2_3 e_q_2_3_q_1_3 e_q_1_3_q_0_3 e_q_0_3_q_0_2 e_q_0_2_q_0_1 e_q_0_1_q_0_0 e_q_0_0_d_6_0 e_d_6_0_d_6_1 e_d_6_1_d_6_2 e_d_6_2_d_6_3 e_d_6_3_ring_E e_ring_E_fringe_ring_E" /><stop parkingArea="pa_e_q_0_0_q_1_0" duration="197" /></vehicle><vehicle id="53" depart="43.53" departLane="1" departSpeed="max" departPos="stop">
        <route edges="e_d_3_3_d_2_3 e_d_2_3_d_2_2 e_d_2_2_d_3_2 e_d_3_2_d_4_2 e_d_4_2_d_5_2 e_d_5_2_d_6_2 e_d_6_2_d_6_1" />
    <stop parkingArea="pa_e_d_3_3_d_2_3" duration="5" /><stop parkingArea="pa_e_d_6_2_d_6_1" duration="100000" /></vehicle>
    <vehicle id="54" depart="44.36" departLane="0" departSpeed="max" departPos="stop">
        <route edges="e_q_3_1_q_3_0 e_q_3_0_q_2_0 e_q_2_0_q_1_0 e_q_1_0_q_0_0 e_q_0_0_d_6_0 e_d_6_0_d_5_0 e_d_5_0_d_4_0 e_d_4_0_d_3_0 e_d_3_0_d_3_1 e_d_3_1_d_3_2 e_d_3_2_d_3_3 e_d_3_3_d_3_4 e_d_3_4_d_3_5 e_d_3_5_d_3_6 e_d_3_6_axis_n_drop e_axis_n_drop_ring_N e_ring_N_fringe_ring_N" />
    <stop parkingArea="pa_e_q_3_1_q_3_0" duration="5" /></vehicle>
    <vehicle id="v2_dining_pa_e_q_0_1_q_0_0_0" depart="44.58" departSpeed="max" departLane="best" departPos="base"><route edges="e_fringe_ring_E_ring_E e_ring_E_d_6_3 e_d_6_3_d_6_2 e_d_6_2_d_6_1 e_d_6_1_d_6_0 e_d_6_0_q_0_0 e_q_0_0_q_1_0 e_q_1_0_q_2_0 e_q_2_0_q_3_0 e_q_3_0_q_3_1 e_q_3_1_q_3_2 e_q_3_2_q_3_3 e_q_3_3_q_2_3 e_q_2_3_q_1_3 e_q_1_3_q_0_3 e_q_0_3_q_0_2 e_q_0_2_q_0_1 e_q_0_1_q_0_0 e_q_0_0_d_6_0 e_d_6_0_d_6_1 e_d_6_1_d_6_2 e_d_6_2_d_6_3 e_d_6_3_ring_E e_ring_E_fringe_ring_E" /><stop parkingArea="pa_e_q_0_1_q_0_0" duration="140" /></vehicle><vehicle id="v2_garage_downtown_death_0" depart="44.73" departSpeed="max" departLane="best" departPos="base"><route edges="e_fringe_ring_N_ring_N e_ring_N_axis_n_drop e_axis_n_drop_d_3_6 e_d_3_6_d_3_5 e_d_3_5_d_4_5 e_d_4_5_d_5_5 e_d_5_5_d_garage_stub" /><stop parkingArea="pa_e_d_5_5_d_garage_stub" duration="100000" /></vehicle><vehicle id="55" depart="45.18" departLane="1" departSpeed="max" departPos="stop">
        <route edges="e_r_5_4_r_4_4 e_r_4_4_r_4_3 e_r_4_3_r_5_3 e_r_5_3_axis_w_ramp e_axis_w_ramp_axis_w_zip e_axis_w_zip_d_0_3 e_d_0_3_d_1_3 e_d_1_3_d_2_3 e_d_2_3_d_3_3 e_d_3_3_d_3_4 e_d_3_4_d_4_4" />
    <stop parkingArea="pa_e_r_5_4_r_4_4" duration="5" /><stop parkingArea="pa_e_d_3_4_d_4_4" duration="100000" /></vehicle>
    <vehicle id="56" depart="46.00" departLane="1" departSpeed="max" departPos="stop">
        <route edges="e_r_0_2_r_0_1 e_r_0_1_r_0_0 e_r_0_0_ra_sw_r2 e_ra_sw_r2_ra_sw_r0 e_ra_sw_r0_ra_sw_r1 e_ra_sw_r1_ring_W e_ring_W_axis_w_zip e_axis_w_zip_d_0_3 e_d_0_3_d_1_3 e_d_1_3_d_1_4 e_d_1_4_d_1_5 e_d_1_5_d_2_5 e_d_2_5_d_3_5" />
    <stop parkingArea="pa_e_r_0_2_r_0_1" duration="5" /><stop parkingArea="pa_e_d_2_5_d_3_5" duration="100000" /></vehicle>
    <vehicle id="57" depart="46.82" departLane="best" departSpeed="max">
        <route edges="e_r_lot1_stub_r_4_3 e_r_4_3_r_5_3 e_r_5_3_axis_w_ramp e_axis_w_ramp_axis_w_zip e_axis_w_zip_d_0_3 e_d_0_3_d_1_3 e_d_1_3_d_2_3 e_d_2_3_d_3_3 e_d_3_3_d_3_2 e_d_3_2_d_3_1 e_d_3_1_d_3_0 e_d_3_0_ra_s_r2 e_ra_s_r2_ra_s_r3 e_ra_s_r3_fringe_ring_S" />
    </vehicle>
    <vehicle id="58" depart="47.64" departLane="1" departSpeed="max" departPos="stop">
        <route edges="e_m_2_2_m_2_1 e_m_2_1_m_2_0 e_m_2_0_m_1_0 e_m_1_0_m_0_0 e_m_0_0_ra_ne_r2 e_ra_ne_r2_ra_ne_r0 e_ra_ne_r0_ring_N e_ring_N_ring_NW e_ring_NW_ring_W e_ring_W_ra_sw_r1 e_ra_sw_r1_ra_sw_r2 e_ra_sw_r2_r_0_0 e_r_0_0_r_0_1 e_r_0_1_r_0_2 e_r_0_2_r_0_3 e_r_0_3_r_1_3 e_r_1_3_r_1_2 e_r_1_2_r_0_2 e_r_0_2_r_0_1" />
    <stop parkingArea="pa_e_m_2_2_m_2_1" duration="5" /><stop parkingArea="pa_e_r_0_2_r_0_1" duration="100000" /></vehicle>
    <vehicle id="59" depart="48.46" departLane="1" departSpeed="max" departPos="stop">
        <route edges="e_r_2_1_r_2_2 e_r_2_2_r_2_3 e_r_2_3_r_3_3 e_r_3_3_r_4_3 e_r_4_3_r_5_3 e_r_5_3_axis_w_ramp e_axis_w_ramp_axis_w_zip e_axis_w_zip_d_0_3 e_d_0_3_d_1_3 e_d_1_3_d_2_3 e_d_2_3_d_2_2 e_d_2_2_d_3_2" />
    <stop parkingArea="pa_e_r_2_1_r_2_2" duration="5" /><stop parkingArea="pa_e_d_2_2_d_3_2" duration="100000" /></vehicle>
    <vehicle id="60" depart="49.28" departLane="1" departSpeed="max" departPos="stop">
        <route edges="e_r_4_1_r_4_2 e_r_4_2_r_4_3 e_r_4_3_r_5_3 e_r_5_3_axis_w_ramp e_axis_w_ramp_axis_w_zip e_axis_w_zip_d_0_3 e_d_0_3_d_1_3 e_d_1_3_d_2_3 e_d_2_3_d_3_3 e_d_3_3_d_4_3 e_d_4_3_d_5_3 e_d_5_3_d_6_3 e_d_6_3_ring_E e_ring_E_ra_ne_r1 e_ra_ne_r1_ra_ne_r2 e_ra_ne_r2_m_0_0 e_m_0_0_m_1_0 e_m_1_0_m_lot e_m_lot_m_0_1 e_m_0_1_m_0_0" />
    <stop parkingArea="pa_e_r_4_1_r_4_2" duration="5" /><stop parkingArea="pa_e_m_0_1_m_0_0" duration="100000" /></vehicle>
    <vehicle id="61" depart="50.11" departLane="1" departSpeed="max" departPos="stop">
        <route edges="e_r_4_2_r_5_2 e_r_5_2_r_5_3 e_r_5_3_axis_w_ramp e_axis_w_ramp_axis_w_zip e_axis_w_zip_d_0_3 e_d_0_3_d_1_3 e_d_1_3_d_2_3 e_d_2_3_d_3_3 e_d_3_3_d_4_3 e_d_4_3_d_5_3 e_d_5_3_d_6_3 e_d_6_3_ring_E e_ring_E_ra_ne_r1 e_ra_ne_r1_ra_ne_r2 e_ra_ne_r2_m_0_0 e_m_0_0_m_0_1" />
    <stop parkingArea="pa_e_r_4_2_r_5_2" duration="5" /><stop parkingArea="pa_e_m_0_0_m_0_1" duration="100000" /></vehicle>
    <vehicle id="62" depart="50.93" departLane="1" departSpeed="max" departPos="stop">
        <route edges="e_axis_n_drop_ring_N e_ring_N_ring_NW e_ring_NW_ring_W e_ring_W_axis_w_zip e_axis_w_zip_d_0_3 e_d_0_3_d_1_3 e_d_1_3_d_2_3 e_d_2_3_d_3_3 e_d_3_3_d_4_3 e_d_4_3_d_5_3" />
    <stop parkingArea="pa_e_axis_n_drop_ring_N" duration="5" /><stop parkingArea="pa_e_d_4_3_d_5_3" duration="100000" /></vehicle>
    <vehicle id="63" depart="51.75" departLane="1" departSpeed="max" departPos="stop">
        <route edges="e_d_0_3_d_0_4 e_d_0_4_d_1_4 e_d_1_4_d_1_3 e_d_1_3_d_2_3 e_d_2_3_d_3_3 e_d_3_3_d_4_3 e_d_4_3_d_5_3 e_d_5_3_d_6_3 e_d_6_3_ring_E e_ring_E_fringe_ring_E" />
    <stop parkingArea="pa_e_d_0_3_d_0_4" duration="5" /></vehicle>
    <vehicle id="64" depart="52.57" departLane="1" departSpeed="max" departPos="stop">
        <route edges="e_r_5_4_r_5_3 e_r_5_3_axis_w_ramp e_axis_w_ramp_axis_w_zip e_axis_w_zip_d_0_3 e_d_0_3_d_1_3 e_d_1_3_d_2_3 e_d_2_3_d_3_3 e_d_3_3_d_4_3 e_d_4_3_d_5_3 e_d_5_3_d_6_3 e_d_6_3_ring_E e_ring_E_ra_ne_r1 e_ra_ne_r1_ra_ne_r2" />
    <stop parkingArea="pa_e_r_5_4_r_5_3" duration="5" /><stop parkingArea="pa_e_ra_ne_r1_ra_ne_r2" duration="100000" /></vehicle>
    <vehicle id="65" depart="53.39" departLane="best" departSpeed="max">
        <route edges="e_m_garage_stub_m_lot e_m_lot_m_1_0 e_m_1_0_m_0_0 e_m_0_0_ra_ne_r2 e_ra_ne_r2_ra_ne_r0 e_ra_ne_r0_ring_N e_ring_N_axis_n_drop e_axis_n_drop_d_3_6 e_d_3_6_d_3_5 e_d_3_5_d_3_4 e_d_3_4_d_2_4 e_d_2_4_d_1_4 e_d_1_4_d_0_4 e_d_0_4_d_0_3" />
    <stop parkingArea="pa_e_d_0_4_d_0_3" duration="100000" /></vehicle>
    <vehicle id="66" depart="54.21" departLane="1" departSpeed="max" departPos="stop">
        <route edges="e_r_5_4_r_5_3 e_r_5_3_axis_w_ramp e_axis_w_ramp_axis_w_zip e_axis_w_zip_d_0_3 e_d_0_3_d_0_4 e_d_0_4_d_1_4 e_d_1_4_d_1_3 e_d_1_3_d_0_3 e_d_0_3_ring_W e_ring_W_ring_NW e_ring_NW_ring_N e_ring_N_axis_n_drop" />
    <stop parkingArea="pa_e_r_5_4_r_5_3" duration="5" /><stop parkingArea="pa_e_ring_N_axis_n_drop" duration="100000" /></vehicle>
    <vehicle id="v2_reslot0_leave_0" depart="54.56" departSpeed="max" departPos="stop" departLane="1"><route edges="e_r_lot0_stub_r_3_1 e_r_3_1_r_2_1 e_r_2_1_r_2_0 e_r_2_0_r_1_0 e_r_1_0_r_0_0 e_r_0_0_ra_sw_r2 e_ra_sw_r2_ra_sw_r0 e_ra_sw_r0_ra_s_r0 e_ra_s_r0_ra_s_r1 e_ra_s_r1_ra_s_r2 e_ra_s_r2_ra_s_r3 e_ra_s_r3_fringe_ring_S" /><stop parkingArea="pa_v2_reslot0_out" duration="5" /></vehicle><vehicle id="68" depart="55.86" departLane="1" departSpeed="max" departPos="stop">
        <route edges="e_d_2_0_d_1_0 e_d_1_0_d_1_1 e_d_1_1_d_1_2 e_d_1_2_d_1_3 e_d_1_3_d_0_3 e_d_0_3_ring_W e_ring_W_ra_sw_r1 e_ra_sw_r1_ra_sw_r2 e_ra_sw_r2_r_0_0 e_r_0_0_r_1_0 e_r_1_0_r_2_0 e_r_2_0_r_3_0 e_r_3_0_r_3_1 e_r_3_1_r_3_2 e_r_3_2_r_4_2 e_r_4_2_r_4_1" />
    <stop parkingArea="pa_e_d_2_0_d_1_0" duration="5" /><stop parkingArea="pa_e_r_4_2_r_4_1" duration="100000" /></vehicle>
    <vehicle id="69" depart="56.68" departLane="1" departSpeed="max" departPos="stop">
        <route edges="e_r_4_1_r_5_1 e_r_5_1_r_5_2 e_r_5_2_r_5_3 e_r_5_3_axis_w_ramp e_axis_w_ramp_axis_w_zip e_axis_w_zip_d_0_3 e_d_0_3_d_1_3 e_d_1_3_d_1_4 e_d_1_4_d_1_5 e_d_1_5_d_1_6" />
    <stop parkingArea="pa_e_r_4_1_r_5_1" duration="5" /><stop parkingArea="pa_e_d_1_5_d_1_6" duration="100000" /></vehicle>
    <vehicle id="70" depart="57.50" departLane="0" departSpeed="max" departPos="stop">
        <route edges="e_q_3_3_q_2_3 e_q_2_3_q_1_3 e_q_1_3_q_0_3 e_q_0_3_q_0_2 e_q_0_2_q_0_1 e_q_0_1_q_0_0 e_q_0_0_d_6_0 e_d_6_0_d_6_1 e_d_6_1_d_6_2 e_d_6_2_d_6_3 e_d_6_3_ring_E e_ring_E_ra_ne_r1 e_ra_ne_r1_ra_ne_r2 e_ra_ne_r2_m_0_0 e_m_0_0_m_0_1 e_m_0_1_m_lot e_m_lot_m_1_0 e_m_1_0_m_0_0" />
    <stop parkingArea="pa_e_q_3_3_q_2_3" duration="5" /><stop parkingArea="pa_e_m_1_0_m_0_0" duration="100000" /></vehicle>
    <vehicle id="71" depart="58.32" departLane="best" departSpeed="max">
        <route edges="e_fringe_ring_S_ra_s_r3 e_ra_s_r3_ra_s_r0 e_ra_s_r0_ra_s_r1 e_ra_s_r1_ra_s_r2 e_ra_s_r2_ra_s_r3 e_ra_s_r3_fringe_ring_S" />
    </vehicle>
    <vehicle id="72" depart="59.14" departLane="0" departSpeed="max" departPos="stop">
        <route edges="e_q_2_0_q_3_0 e_q_3_0_q_3_1 e_q_3_1_q_3_2 e_q_3_2_q_3_3 e_q_3_3_q_2_3 e_q_2_3_q_1_3 e_q_1_3_q_0_3 e_q_0_3_q_0_2 e_q_0_2_q_0_1 e_q_0_1_q_0_0 e_q_0_0_d_6_0 e_d_6_0_d_5_0 e_d_5_0_d_4_0 e_d_4_0_d_3_0 e_d_3_0_d_3_1 e_d_3_1_d_3_2" />
    <stop parkingArea="pa_e_q_2_0_q_3_0" duration="5" /><stop parkingArea="pa_e_d_3_1_d_3_2" duration="100000" /></vehicle>
    <vehicle id="73" depart="59.96" departLane="1" departSpeed="max" departPos="stop">