<?xml version="1.0" encoding="UTF-8"?>
<connections xmlns:xsi="http://www.w3.org/2001/XMLSchema-instance" xsi:noNamespaceSchemaLocation="http://sumo.dlr.de/xsd/connections_file.xsd">
    <connection from="E0" to="E1" fromLane="0" toLane="1"/>
    <connection from="E1" to="E2" fromLane="0" toLane="0"/>
</connections>
