<?xml version="1.0" encoding="UTF-8"?>
<edges xmlns:xsi="http://www.w3.org/2001/XMLSchema-instance" xsi:noNamespaceSchemaLocation="http://sumo.dlr.de/xsd/edges_file.xsd">
    <edge id="E0" from="N0" to="N1" numLanes="1" speed="13.89"/>
    <edge id="E1" from="N1" to="N2" numLanes="2" speed="13.89"/>
    <edge id="E2" from="N2" to="N3" numLanes="1" speed="13.89"/>
</edges>
