<?xml version="1.0" encoding="UTF-8"?>
<routes xmlns:xsi="http://www.w3.org/2001/XMLSchema-instance" xsi:noNamespaceSchemaLocation="http://sumo.dlr.de/xsd/routes_file.xsd">
    <vType id="lead" vClass="passenger" sigma="0" carFollowModel="CACC" maxSpeed="6.00"/>
    <vType id="cacc" vClass="passenger" sigma="0" carFollowModel="CACC"/>
    <route id="r0" edges="e0"/>
    <vehicle id="lead"   type="lead" route="r0" depart="0" departPos="140" departSpeed="0" departLane="0"/>
    <vehicle id="follow" type="cacc" route="r0" depart="0" departPos="0"   departSpeed="0" departLane="0"/>
</routes>
