<connections>
    <connection from="e0" to="e1" fromLane="0" toLane="0"/>
    <connection from="e0" to="e1" fromLane="1" toLane="1"/>
</connections>
