<edges>
    <edge id="e0" from="A" to="B" numLanes="2" speed="10.00" priority="-1"/>
    <edge id="e1" from="B" to="C" numLanes="2" speed="10.00" priority="-1"/>
</edges>
