<additional xmlns:xsi="http://www.w3.org/2001/XMLSchema-instance" xsi:noNamespaceSchemaLocation="http://sumo.dlr.de/xsd/additional_file.xsd">
    <parkingArea id="pa1" lane="e1_0" startPos="2.00" endPos="16.00" roadsideCapacity="1" friendlyPos="true"/>
</additional>
