<?xml version="1.0" encoding="UTF-8"?>

<!-- generated on 2026-07-18 17:25:49 by Eclipse SUMO netconvert Version 1.20.0
<configuration xmlns:xsi="http://www.w3.org/2001/XMLSchema-instance" xsi:noNamespaceSchemaLocation="http://sumo.dlr.de/xsd/netconvertConfiguration.xsd">

    <input>
        <node-files value="nodes.nod.xml"/>
        <edge-files value="edges.edg.xml"/>
        <connection-files value="connections.con.xml"/>
    </input>

    <output>
        <output-file value="net.net.xml"/>
    </output>

    <junctions>
        <no-turnarounds value="true"/>
        <junctions.corner-detail value="0"/>
    </junctions>

</configuration>
-->

<net version="1.20" limitTurnSpeed="5.50" xmlns:xsi="http://www.w3.org/2001/XMLSchema-instance" xsi:noNamespaceSchemaLocation="http://sumo.dlr.de/xsd/net_file.xsd">

    <location netOffset="0.00,0.00" convBoundary="0.00,0.00,87.00,0.00" origBoundary="0.00,0.00,87.00,0.00" projParameter="!"/>

    <edge id=":B_0" function="internal">
        <lane id=":B_0_0" index="0" speed="10.00" length="0.10" shape="57.00,-4.80 57.00,-4.80"/>
        <lane id=":B_0_1" index="1" speed="10.00" length="0.10" shape="57.00,-1.60 57.00,-1.60"/>
    </edge>

    <edge id="e0" from="A" to="B" priority="-1">
        <lane id="e0_0" index="0" speed="10.00" length="57.00" shape="0.00,-4.80 57.00,-4.80"/>
        <lane id="e0_1" index="1" speed="10.00" length="57.00" shape="0.00,-1.60 57.00,-1.60"/>
    </edge>
    <edge id="e1" from="B" to="C" priority="-1">
        <lane id="e1_0" index="0" speed="10.00" length="30.00" shape="57.00,-4.80 87.00,-4.80"/>
        <lane id="e1_1" index="1" speed="10.00" length="30.00" shape="57.00,-1.60 87.00,-1.60"/>
    </edge>

    <junction id="A" type="dead_end" x="0.00" y="0.00" incLanes="" intLanes="" shape="0.00,0.00 0.00,-6.40"/>
    <junction id="B" type="priority" x="57.00" y="0.00" incLanes="e0_0 e0_1" intLanes=":B_0_0 :B_0_1" shape="57.00,0.00 57.00,-6.40 57.00,0.00">
        <request index="0" response="00" foes="00" cont="0"/>
        <request index="1" response="00" foes="00" cont="0"/>
    </junction>
    <junction id="C" type="dead_end" x="87.00" y="0.00" incLanes="e1_0 e1_1" intLanes="" shape="87.00,-6.40 87.00,0.00"/>

    <connection from="e0" to="e1" fromLane="0" toLane="0" via=":B_0_0" dir="s" state="M"/>
    <connection from="e0" to="e1" fromLane="1" toLane="1" via=":B_0_1" dir="s" state="M"/>

    <connection from=":B_0" to="e1" fromLane="0" toLane="0" dir="s" state="M"/>
    <connection from=":B_0" to="e1" fromLane="1" toLane="1" dir="s" state="M"/>

</net>
