<nodes>
    <node id="A" x="0" y="0" type="dead_end"/>
    <node id="B" x="57" y="0" type="priority"/>
    <node id="C" x="87" y="0" type="dead_end"/>
</nodes>
