<?xml version="1.0" encoding="UTF-8"?>

<!-- generated on 2026-07-08 23:08:38 by Eclipse SUMO netconvert Version 1.20.0
<configuration xmlns:xsi="http://www.w3.org/2001/XMLSchema-instance" xsi:noNamespaceSchemaLocation="http://sumo.dlr.de/xsd/netconvertConfiguration.xsd">

    <input>
        <node-files value="nodes.nod.xml"/>
        <edge-files value="edges.edg.xml"/>
        <connection-files value="connections.con.xml"/>
    </input>

    <output>
        <output-file value="net.net.xml"/>
    </output>

    <junctions>
        <no-turnarounds value="true"/>
    </junctions>

</configuration>
-->

<net version="1.20" junctionCornerDetail="5" limitTurnSpeed="5.50" xmlns:xsi="http://www.w3.org/2001/XMLSchema-instance" xsi:noNamespaceSchemaLocation="http://sumo.dlr.de/xsd/net_file.xsd">

    <location netOffset="500.00,100.00" convBoundary="0.00,0.00,600.00,200.00" origBoundary="-500.00,-100.00,100.00,100.00" projParameter="!"/>

    <edge id=":J_0" function="internal">
        <lane id=":J_0_0" index="0" speed="13.89" length="11.20" shape="501.60,92.80 501.60,104.00"/>
    </edge>
    <edge id=":J_1" function="internal">
        <lane id=":J_1_0" index="0" speed="13.89" length="11.20" shape="496.00,98.40 507.20,98.40"/>
    </edge>

    <edge id="JE" from="J" to="E" priority="2">
        <lane id="JE_0" index="0" speed="13.89" length="92.80" shape="507.20,98.40 600.00,98.40"/>
    </edge>
    <edge id="JN" from="J" to="N" priority="1">
        <lane id="JN_0" index="0" speed="13.89" length="96.00" shape="501.60,104.00 501.60,200.00"/>
    </edge>
    <edge id="SJ" from="S" to="J" priority="1">
        <lane id="SJ_0" index="0" speed="13.89" length="92.80" shape="501.60,0.00 501.60,92.80"/>
    </edge>
    <edge id="WJ" from="W" to="J" priority="2">
        <lane id="WJ_0" index="0" speed="13.89" length="496.00" shape="0.00,98.40 496.00,98.40"/>
    </edge>

    <junction id="E" type="dead_end" x="600.00" y="100.00" incLanes="JE_0" intLanes="" shape="600.00,96.80 600.00,100.00"/>
    <junction id="J" type="priority" x="500.00" y="100.00" incLanes="SJ_0 WJ_0" intLanes=":J_0_0 :J_1_0" shape="500.00,104.00 503.20,104.00 503.64,101.78 504.20,101.00 504.98,100.44 505.98,100.11 507.20,100.00 507.20,96.80 504.98,96.36 504.20,95.80 503.64,95.02 503.31,94.02 503.20,92.80 500.00,92.80 499.56,95.02 499.00,95.80 498.22,96.36 497.22,96.69 496.00,96.80 496.00,100.00 498.22,100.44 499.00,101.00 499.56,101.78 499.89,102.78">
        <request index="0" response="10" foes="10" cont="0"/>
        <request index="1" response="00" foes="01" cont="0"/>
    </junction>
    <junction id="N" type="dead_end" x="500.00" y="200.00" incLanes="JN_0" intLanes="" shape="503.20,200.00 500.00,200.00"/>
    <junction id="S" type="dead_end" x="500.00" y="0.00" incLanes="" intLanes="" shape="500.00,0.00 503.20,0.00"/>
    <junction id="W" type="dead_end" x="0.00" y="100.00" incLanes="" intLanes="" shape="0.00,100.00 0.00,96.80"/>

    <connection from="SJ" to="JN" fromLane="0" toLane="0" via=":J_0_0" dir="s" state="m"/>
    <connection from="WJ" to="JE" fromLane="0" toLane="0" via=":J_1_0" dir="s" state="M"/>

    <connection from=":J_0" to="JN" fromLane="0" toLane="0" dir="s" state="M"/>
    <connection from=":J_1" to="JE" fromLane="0" toLane="0" dir="s" state="M"/>

</net>
