<nodes>
    <node id="W" x="-500.00" y="0.00"   type="priority"/>
    <node id="J" x="0.00"    y="0.00"   type="priority"/>
    <node id="E" x="100.00"  y="0.00"   type="priority"/>
    <node id="S" x="0.00"    y="-100.00" type="priority"/>
    <node id="N" x="0.00"    y="100.00"  type="priority"/>
</nodes>
