sumo_version=1.20.0
sumo_version_reported=Eclipse SUMO sumo Version 1.20.0
command=sumo -c config.sumocfg --fcd-output golden.fcd.xml --fcd-output.acceleration --precision 6 --save-state.times 1 --save-state.files golden.state.xml --no-step-log true
state_time=1
fcd_precision=6
# net built with: netconvert -n n.nod.xml -e e.edg.xml -o net.net.xml
# vtype defaults: golden.vtype.json (libsumo/TraCI dump)

DIAGNOSTIC ANCHOR (skip-gated) -- bug C: SYMMETRIC arrival-time RoW on an uncontrolled
(right_before_left) junction. Distinct from scenario 26 (asymmetric 2-vehicle right-before-left,
already green): here a directed CONFLICT CYCLE with no clear priority winner.

SETUP: one single-lane right_before_left crossroads (node C), four STRAIGHT-through vehicles, one
per approach (ns: NC->CS, sn: SC->CN, ew: EC->CW, we: WC->CE), ALL departing t=0 from 100 m out at
rest -- perfectly symmetric, arriving together. sigma=0, Euler, actionStepLength=1, teleport off,
seed 42.

SUMO (golden): flows all four. The N-S axis (ns + sn, which are parallel and do NOT conflict) crosses
FIRST -- enterJunction t=17, exitJunction t=20; then the E-W axis (ew + we) t=19..24. 0 stuck, 0
teleports, all cleared.

ENGINE (baseline, this commit): DEADLOCKS -- all four drive ONTO the junction (enterJunction
t=17..19) and stop mid-junction, each blocking the next around the ring; none exits. 4/4 permanently
stuck.

ROOT CAUSE. The four straight movements form a directed right-before-left 4-cycle (each yields to the
movement on its right): NC->CS (link 1) yields to WC->CE (13); WC->CE (13) yields to SC->CN (9);
SC->CN (9) yields to EC->CW (5); EC->CW (5) yields to NC->CS (1). No movement has priority over its
own foe, and all arrive together, so the willPass pre-pass resolves WillPass=false for ALL four
(each is braking-to-yield). In the real PlanMovements pass the crossing gate's
`foeYieldsThisStep = !foe.WillPass` is then TRUE for every ego (its foe "won't pass"), so ALL four
proceed onto the junction simultaneously -> mutual mid-junction gridlock.

HOW SUMO BREAKS IT (verified in the vendored source, MSVehicle::planMoveInternal
MSVehicle.cpp:2818-2839): an EXPLICIT right-before-left deadlock detector. For a link in state
LINKSTATE_EQUAL (netconvert emits connection state "=" for the straight/left movements at a
right_before_left junction) with `myWaitingTime > 0` (ego already halted at the stop line), SUMO walks
the blocker chain `MSLink::getFirstApproachingFoe` (MSLink.cpp:1080 -- the closest willPass foe on each
foeLink) up to 100 hops; if the chain WRAPS BACK to ego's own link (`blocker.second == *link`) it has
found a circular-yielding deadlock, and breaks it RANDOMLY: `if (RandHelper::rand(getRNG()) <
threshold) setRequest = false`, with `threshold = 0.25` for a STRAIGHT movement and `0.75` for a turn.
That is: a deadlocked vehicle rolls its RNG each step and, with per-step probability 0.25 (straight),
ABORTS its junction request -- yields, letting the cycle unwind. Over a few steps the rolls
desynchronise the four and one axis goes, then the other (here N-S at t=17, E-W at t=19).

CONSEQUENCE FOR PARITY: this is a RANDOM tie-break keyed on the vehicle RNG. The engine's determinism
policy (CLAUDE.md / C1) is "distribution SHAPE ported faithfully, RNG STREAM is ours" (VehicleRng /
SplitMix64, never SUMO's RandHelper/MT19937), so which vehicle backs off on which step will NOT match
SUMO. Therefore EXACT @1e-3 FCD parity is NOT achievable for this scenario -- only STUCK-COUNT /
statistical parity (the deadlock breaks and all four drain, matching SUMO's 0 stuck, but the exact
per-step trajectory differs). golden.fcd.xml is kept as the "SUMO flows, N-S-then-E-W" reference, NOT
an @1e-3 target; RungSymRblStraightDiagTests asserts stuck==0 (the _diag stuck-count convention), not
FCD parity.

FIX (LANDED -- Engine.ResolveRightBeforeLeftCycles): rather than SUMO's RNG abort (which our own RNG
stream could not match anyway), a DETERMINISTIC, order-independent equivalent. In the willPass
pre-pass post-pass, among the vehicles approaching a junction (within reservation distance, not yet on
an internal lane), detect directed response cycles (a link that, following request.RespondsTo edges
among active links, reaches itself); within each cycle select a maximal set of mutually-non-conflicting
links GREEDILY by ascending link index (select a link if it is not FoeWith any already-selected link)
and set the selected vehicles WillPass=true (pass), the rest WillPass=false (yield). The real-pass
crossing gate then lets exactly the selected non-conflicting movements cross while their foes hold; the
existing on-junction leader-following sequences the fine-grained order. For this scenario the lower-
index axis (N-S) is selected and all four drain (0 stuck == SUMO). allway_stop junctions are EXCLUDED
(their mutual response is a 2-cycle but they are governed by AllwayStopConstraint). INERT wherever no
directed cycle exists -- the whole committed suite stays byte-identical and Sim.Bench hash unchanged
(909605E965BFFE59), which is the parity-reviewer-verified proof. This test asserts stuck==0 (the _diag
stuck-count convention; exact @1e-3 is unreachable because SUMO's tie-break is RNG-keyed and its stream
is not ours). NOTE: on a DENSE all-right_before_left grid the fix strictly improves flow (baseline
195 stuck / 1794 cross-lane overlaps -> 0 stuck / 112 overlaps) but does not reach SUMO's exact
behaviour (SUMO 100 stuck / 0 overlaps) -- the residual crossing overlaps are the PRE-EXISTING missing
keepClear box-blocking (bug #3, C4-VII-REMAINING.md), not this change, which strictly reduces them.
