<?xml version="1.0" encoding="UTF-8"?>
<routes xmlns:xsi="http://www.w3.org/2001/XMLSchema-instance" xsi:noNamespaceSchemaLocation="http://sumo.dlr.de/xsd/routes_file.xsd">
    <vType id="passenger0" vClass="passenger" sigma="0"/>
    <route id="r0" edges="e0"/>
    <vehicle id="veh0" type="passenger0" route="r0" depart="0" departSpeed="0" departPos="0" departLane="0"/>
</routes>
