<?xml version="1.0" encoding="UTF-8"?>
<routes xmlns:xsi="http://www.w3.org/2001/XMLSchema-instance" xsi:noNamespaceSchemaLocation="http://sumo.dlr.de/xsd/routes_file.xsd">
    <vType id="car" vClass="passenger" sigma="0"/>
    <route id="southNorth" edges="SJ JN"/>
    <route id="westEast" edges="WJ JE"/>
    <vehicle id="vSouth" type="car" route="southNorth" depart="0" departPos="0" departSpeed="0" departLane="0"/>
    <vehicle id="vWest"  type="car" route="westEast"   depart="3" departPos="0" departSpeed="0" departLane="0"/>
</routes>
