<?xml version="1.0" encoding="UTF-8"?>

<!-- generated on 2026-07-18 18:52:15 by Eclipse SUMO netgenerate Version 1.20.0
<configuration xmlns:xsi="http://www.w3.org/2001/XMLSchema-instance" xsi:noNamespaceSchemaLocation="http://sumo.dlr.de/xsd/netgenerateConfiguration.xsd">

    <random_network>
        <rand value="true"/>
        <rand.iterations value="130"/>
        <rand.max-distance value="95.0"/>
        <rand.min-distance value="25.0"/>
        <rand.min-angle value="40"/>
        <rand.connectivity value="0.95"/>
        <rand.neighbor-dist3 value="8.0"/>
        <rand.neighbor-dist4 value="3.0"/>
    </random_network>

    <output>
        <output-file value="/home/user/SumoData/experiments/subarea/synthetic_junction/grid.net.xml"/>
    </output>

    <processing>
        <random-lanenumber value="true"/>
        <random-priority value="true"/>
    </processing>

    <building_defaults>
        <default.lanenumber value="2"/>
        <default.priority value="4"/>
        <default-junction-type value="priority"/>
    </building_defaults>

    <tls_building>
        <tls.discard-simple value="true"/>
    </tls_building>

    <junctions>
        <junctions.right-before-left.speed-threshold value="14.0"/>
        <no-turnarounds value="false"/>
    </junctions>

    <random_number>
        <seed value="42"/>
    </random_number>

</configuration>
-->

<net version="1.20" junctionCornerDetail="5" limitTurnSpeed="5.50" xmlns:xsi="http://www.w3.org/2001/XMLSchema-instance" xsi:noNamespaceSchemaLocation="http://sumo.dlr.de/xsd/net_file.xsd">

    <location netOffset="587.15,430.96" convBoundary="0.00,0.00,924.13,905.21" origBoundary="-587.15,-430.96,336.99,474.24" projParameter="!"/>

    <edge id=":1_0" function="internal">
        <lane id=":1_0_0" index="0" speed="13.89" length="21.01" shape="593.43,443.21 590.92,440.21 587.50,437.24 583.06,433.97 577.50,430.09"/>
        <lane id=":1_0_1" index="1" speed="13.89" length="21.01" shape="593.43,443.21 591.21,439.80 588.41,435.92 584.60,431.75 579.33,427.47"/>
    </edge>
    <edge id=":1_2" function="internal">
        <lane id=":1_2_0" index="0" speed="13.89" length="6.73" shape="593.43,443.21 590.10,437.36"/>
    </edge>
    <edge id=":1_3" function="internal">
        <lane id=":1_3_0" index="0" speed="8.84" length="4.15" shape="593.43,443.21 591.62,439.48"/>
    </edge>
    <edge id=":1_4" function="internal">
        <lane id=":1_4_0" index="0" speed="3.65" length="1.44" shape="593.43,443.21 593.43,441.77"/>
    </edge>
    <edge id=":1_18" function="internal">
        <lane id=":1_18_0" index="0" speed="13.89" length="16.18" shape="590.10,437.36 588.13,431.82 587.53,426.57 588.29,421.61"/>
    </edge>
    <edge id=":1_19" function="internal">
        <lane id=":1_19_0" index="0" speed="8.84" length="18.76" shape="591.62,439.48 590.50,437.17 590.66,432.43 593.92,428.98 600.27,426.82"/>
    </edge>
    <edge id=":1_20" function="internal">
        <lane id=":1_20_0" index="0" speed="3.65" length="3.23" shape="593.43,441.77 593.87,440.99 594.75,440.87 596.09,441.43"/>
    </edge>
    <edge id=":1_5" function="internal">
        <lane id=":1_5_0" index="0" speed="5.81" length="9.14" shape="601.47,433.11 598.94,433.97 597.64,435.34 597.58,437.24 598.75,439.64"/>
    </edge>
    <edge id=":1_6" function="internal">
        <lane id=":1_6_0" index="0" speed="13.89" length="24.78" shape="601.47,433.11 594.20,434.02 587.77,433.83 582.21,432.52 577.50,430.09"/>
        <lane id=":1_6_1" index="1" speed="13.89" length="22.23" shape="600.87,429.96 594.24,430.82 588.44,430.69 583.47,429.57 579.33,427.47"/>
    </edge>
    <edge id=":1_8" function="internal">
        <lane id=":1_8_0" index="0" speed="8.06" length="19.73" shape="600.87,429.96 594.08,430.59 589.72,429.41 587.79,426.42 588.29,421.61"/>
    </edge>
    <edge id=":1_9" function="internal">
        <lane id=":1_9_0" index="0" speed="3.65" length="4.67" shape="600.87,429.96 599.54,429.40 599.00,428.69 599.24,427.83 600.27,426.82"/>
    </edge>
    <edge id=":1_10" function="internal">
        <lane id=":1_10_0" index="0" speed="6.55" length="12.53" shape="591.35,422.53 591.19,425.19 592.63,426.79 595.65,427.33 600.27,426.82"/>
    </edge>
    <edge id=":1_11" function="internal">
        <lane id=":1_11_0" index="0" speed="13.50" length="20.09" shape="591.35,422.53 590.73,426.78 591.31,431.34 593.09,436.22 596.09,441.43"/>
    </edge>
    <edge id=":1_12" function="internal">
        <lane id=":1_12_0" index="0" speed="7.70" length="16.21" shape="591.35,422.53 589.36,426.97 586.69,429.27 583.35,429.43 579.33,427.47"/>
    </edge>
    <edge id=":1_13" function="internal">
        <lane id=":1_13_0" index="0" speed="3.65" length="4.67" shape="591.35,422.53 590.24,423.45 589.36,423.61 588.71,422.99 588.29,421.61"/>
    </edge>
    <edge id=":1_14" function="internal">
        <lane id=":1_14_0" index="0" speed="6.11" length="9.75" shape="581.16,424.84 583.51,425.97 585.49,425.81 587.08,424.35 588.29,421.61"/>
    </edge>
    <edge id=":1_15" function="internal">
        <lane id=":1_15_0" index="0" speed="13.89" length="19.68" shape="581.16,424.84 584.73,426.62 589.11,427.55 594.29,427.61 600.27,426.82"/>
    </edge>
    <edge id=":1_16" function="internal">
        <lane id=":1_16_0" index="0" speed="13.89" length="22.42" shape="581.16,424.84 584.44,427.47 588.07,431.09 591.98,435.73 596.09,441.43"/>
    </edge>
    <edge id=":1_17" function="internal">
        <lane id=":1_17_0" index="0" speed="3.65" length="1.44" shape="581.16,424.84 581.68,426.18"/>
    </edge>
    <edge id=":1_21" function="internal">
        <lane id=":1_21_0" index="0" speed="3.65" length="3.23" shape="581.68,426.18 581.55,427.07 580.77,427.49 579.33,427.47"/>
    </edge>
    <edge id=":100_0" function="internal">
        <lane id=":100_0_0" index="0" speed="3.65" length="4.67" shape="647.74,510.95 647.88,512.38 647.51,513.20 646.64,513.40 645.26,512.97"/>
    </edge>
    <edge id=":1063_0" function="internal">
        <lane id=":1063_0_0" index="0" speed="6.51" length="9.27" shape="581.19,134.04 579.07,132.52 577.01,132.05 575.03,132.61 573.12,134.20"/>
    </edge>
    <edge id=":1063_1" function="internal">
        <lane id=":1063_1_0" index="0" speed="7.77" length="14.76" shape="583.38,131.71 580.81,128.48 580.04,125.32 581.06,122.23 583.88,119.22"/>
    </edge>
    <edge id=":1063_2" function="internal">
        <lane id=":1063_2_0" index="0" speed="3.65" length="4.67" shape="583.38,131.71 583.06,130.30 583.31,129.44 584.15,129.14 585.58,129.37"/>
    </edge>
    <edge id=":1063_3" function="internal">
        <lane id=":1063_3_0" index="0" speed="6.22" length="9.05" shape="585.88,121.72 584.15,123.57 583.52,125.46 584.00,127.39 585.58,129.37"/>
    </edge>
    <edge id=":1063_4" function="internal">
        <lane id=":1063_4_0" index="0" speed="13.89" length="17.87" shape="585.88,121.72 582.71,124.46 579.28,127.73 575.97,131.11 573.12,134.20"/>
    </edge>
    <edge id=":1063_5" function="internal">
        <lane id=":1063_5_0" index="0" speed="3.65" length="4.67" shape="585.88,121.72 584.45,121.85 583.63,121.47 583.45,120.60 583.88,119.22"/>
    </edge>
    <edge id=":1063_6" function="internal">
        <lane id=":1063_6_0" index="0" speed="13.89" length="18.78" shape="570.73,132.09 572.82,128.94 574.77,125.22 577.48,121.10 581.89,116.72"/>
        <lane id=":1063_6_1" index="1" speed="13.89" length="18.78" shape="570.73,132.09 573.17,129.30 575.85,126.40 579.26,123.13 583.88,119.22"/>
    </edge>
    <edge id=":1063_8" function="internal">
        <lane id=":1063_8_0" index="0" speed="8.67" length="17.24" shape="570.73,132.09 574.67,128.50 578.46,126.85 582.10,127.14 585.58,129.37"/>
    </edge>
    <edge id=":1063_9" function="internal">
        <lane id=":1063_9_0" index="0" speed="3.65" length="4.67" shape="570.73,132.09 572.12,131.72 572.98,131.95 573.32,132.78 573.12,134.20"/>
    </edge>
    <edge id=":1074_0" function="internal">
        <lane id=":1074_0_0" index="0" speed="12.35" length="30.76" shape="828.85,195.07 834.23,203.26 836.71,210.63 836.28,217.18 832.95,222.90"/>
    </edge>
    <edge id=":1074_1" function="internal">
        <lane id=":1074_1_0" index="0" speed="8.04" length="23.69" shape="826.34,197.06 828.87,202.96 827.70,208.26 823.56,211.77 817.16,212.29"/>
    </edge>
    <edge id=":1074_2" function="internal">
        <lane id=":1074_2_0" index="0" speed="3.65" length="4.67" shape="826.34,197.06 826.46,198.50 826.09,199.31 825.21,199.49 823.84,199.05"/>
    </edge>
    <edge id=":1074_3" function="internal">
        <lane id=":1074_3_0" index="0" speed="5.46" length="9.99" shape="818.34,206.00 821.58,206.27 823.16,205.53 823.08,203.79 821.33,201.04"/>
    </edge>
    <edge id=":1074_4" function="internal">
        <lane id=":1074_4_0" index="0" speed="9.43" length="28.55" shape="818.34,206.00 826.94,208.31 833.33,211.85 835.88,216.69 832.95,222.90"/>
    </edge>
    <edge id=":1074_5" function="internal">
        <lane id=":1074_5_0" index="0" speed="3.65" length="4.67" shape="817.75,209.15 818.78,210.16 819.03,211.02 818.49,211.73 817.16,212.29"/>
    </edge>
    <edge id=":1074_6" function="internal">
        <lane id=":1074_6_0" index="0" speed="7.69" length="18.51" shape="830.57,220.76 831.45,218.32 829.51,216.10 824.75,214.09 817.16,212.29"/>
    </edge>
    <edge id=":1074_7" function="internal">
        <lane id=":1074_7_0" index="0" speed="11.02" length="24.32" shape="830.57,220.76 832.24,217.07 831.68,212.23 828.88,206.22 823.84,199.05"/>
    </edge>
    <edge id=":1074_8" function="internal">
        <lane id=":1074_8_0" index="0" speed="3.65" length="4.67" shape="830.57,220.76 831.97,220.40 832.83,220.64 833.16,221.47 832.95,222.90"/>
    </edge>
    <edge id=":108_0" function="internal">
        <lane id=":108_0_0" index="0" speed="13.89" length="30.67" shape="341.83,486.35 338.97,492.81 334.32,498.16 327.87,502.39 319.64,505.50"/>
    </edge>
    <edge id=":108_1" function="internal">
        <lane id=":108_1_0" index="0" speed="8.81" length="8.84" shape="338.75,485.48 335.79,492.43 334.77,493.22"/>
    </edge>
    <edge id=":108_2" function="internal">
        <lane id=":108_2_0" index="0" speed="3.65" length="1.44" shape="338.75,485.48 337.66,486.42"/>
    </edge>
    <edge id=":108_11" function="internal">
        <lane id=":108_11_0" index="0" speed="8.81" length="16.09" shape="334.77,493.22 331.90,495.43 327.08,494.47 321.34,489.55"/>
    </edge>
    <edge id=":108_12" function="internal">
        <lane id=":108_12_0" index="0" speed="3.65" length="3.23" shape="337.66,486.42 336.78,486.59 336.11,485.99 335.67,484.62"/>
    </edge>
    <edge id=":108_3" function="internal">
        <lane id=":108_3_0" index="0" speed="5.63" length="9.29" shape="326.10,485.27 328.24,487.10 330.03,487.46 331.48,486.34 332.59,483.76"/>
        <lane id=":108_3_1" index="1" speed="7.39" length="17.11" shape="323.72,487.41 327.66,490.79 330.96,491.44 333.63,489.39 335.67,484.62"/>
    </edge>
    <edge id=":108_5" function="internal">
        <lane id=":108_5_0" index="0" speed="8.98" length="24.51" shape="323.72,487.41 328.04,493.62 328.79,498.70 326.00,502.67 319.64,505.50"/>
    </edge>
    <edge id=":108_6" function="internal">
        <lane id=":108_6_0" index="0" speed="3.65" length="4.67" shape="323.72,487.41 323.93,488.84 323.60,489.67 322.74,489.91 321.34,489.55"/>
    </edge>
    <edge id=":108_7" function="internal">
        <lane id=":108_7_0" index="0" speed="5.99" length="10.14" shape="317.92,499.34 320.36,498.20 321.35,496.54 320.88,494.37 318.96,491.69"/>
    </edge>
    <edge id=":108_8" function="internal">
        <lane id=":108_8_0" index="0" speed="12.89" length="22.42" shape="317.92,499.34 323.03,497.19 327.17,493.88 330.36,489.40 332.59,483.76"/>
        <lane id=":108_8_1" index="1" speed="13.78" length="25.70" shape="318.78,502.42 324.68,499.95 329.46,496.16 333.12,491.05 335.67,484.62"/>
    </edge>
    <edge id=":108_10" function="internal">
        <lane id=":108_10_0" index="0" speed="3.65" length="1.44" shape="318.78,502.42 320.15,502.87"/>
    </edge>
    <edge id=":108_13" function="internal">
        <lane id=":108_13_0" index="0" speed="3.65" length="3.23" shape="320.15,502.87 320.75,503.53 320.58,504.41 319.64,505.50"/>
    </edge>
    <edge id=":1090_0" function="internal">
        <lane id=":1090_0_0" index="0" speed="6.81" length="11.23" shape="170.59,828.09 167.90,825.52 165.44,824.34 163.21,824.52 161.20,826.09"/>
    </edge>
    <edge id=":1090_1" function="internal">
        <lane id=":1090_1_0" index="0" speed="13.89" length="21.02" shape="173.01,826.00 158.99,810.34"/>
    </edge>
    <edge id=":1090_2" function="internal">
        <lane id=":1090_2_0" index="0" speed="8.19" length="4.91" shape="173.01,826.00 170.30,821.91"/>
    </edge>
    <edge id=":1090_3" function="internal">
        <lane id=":1090_3_0" index="0" speed="3.65" length="1.44" shape="173.01,826.00 172.84,824.57"/>
    </edge>
    <edge id=":1090_17" function="internal">
        <lane id=":1090_17_0" index="0" speed="8.19" length="18.50" shape="170.30,821.91 169.11,820.11 169.08,816.00 172.91,813.65 180.62,813.08"/>
    </edge>
    <edge id=":1090_18" function="internal">
        <lane id=":1090_18_0" index="0" speed="3.65" length="3.23" shape="172.84,824.57 173.18,823.75 174.05,823.53 175.44,823.91"/>
    </edge>
    <edge id=":1090_4" function="internal">
        <lane id=":1090_4_0" index="0" speed="5.49" length="9.62" shape="180.51,816.28 177.48,816.53 176.03,817.54 176.16,819.31 177.86,821.82"/>
    </edge>
    <edge id=":1090_5" function="internal">
        <lane id=":1090_5_0" index="0" speed="13.89" length="23.90" shape="180.51,816.28 173.58,816.58 167.64,817.98 162.70,820.46 158.75,824.04"/>
    </edge>
    <edge id=":1090_6" function="internal">
        <lane id=":1090_6_0" index="0" speed="13.89" length="22.59" shape="180.51,816.28 175.53,815.79 169.18,814.59 163.12,812.76 158.99,810.34"/>
    </edge>
    <edge id=":1090_7" function="internal">
        <lane id=":1090_7_0" index="0" speed="3.65" length="4.67" shape="180.51,816.28 179.34,815.44 178.97,814.63 179.39,813.84 180.62,813.08"/>
    </edge>
    <edge id=":1090_8" function="internal">
        <lane id=":1090_8_0" index="0" speed="13.89" length="18.43" shape="163.58,805.88 167.61,809.13 171.15,810.15 175.20,810.03 180.72,809.89"/>
    </edge>
    <edge id=":1090_9" function="internal">
        <lane id=":1090_9_0" index="0" speed="13.89" length="21.31" shape="163.58,805.88 177.86,821.82"/>
        <lane id=":1090_9_1" index="1" speed="13.89" length="21.31" shape="161.29,808.11 175.44,823.91"/>
    </edge>
    <edge id=":1090_11" function="internal">
        <lane id=":1090_11_0" index="0" speed="9.25" length="3.81" shape="161.29,808.11 163.30,811.35"/>
    </edge>
    <edge id=":1090_12" function="internal">
        <lane id=":1090_12_0" index="0" speed="3.65" length="1.44" shape="161.29,808.11 161.55,809.53"/>
    </edge>
    <edge id=":1090_19" function="internal">
        <lane id=":1090_19_0" index="0" speed="9.25" length="13.99" shape="163.30,811.35 163.55,815.08 162.03,819.31 158.75,824.04"/>
    </edge>
    <edge id=":1090_20" function="internal">
        <lane id=":1090_20_0" index="0" speed="3.65" length="3.23" shape="161.55,809.53 161.25,810.37 160.40,810.64 158.99,810.34"/>
    </edge>
    <edge id=":1090_13" function="internal">
        <lane id=":1090_13_0" index="0" speed="8.00" length="13.07" shape="156.30,821.98 158.89,818.35 160.21,815.20 160.24,812.53 158.99,810.34"/>
    </edge>
    <edge id=":1090_14" function="internal">
        <lane id=":1090_14_0" index="0" speed="13.89" length="26.80" shape="156.30,821.98 160.78,817.89 166.33,815.04 172.94,813.44 180.62,813.08"/>
    </edge>
    <edge id=":1090_15" function="internal">
        <lane id=":1090_15_0" index="0" speed="9.46" length="22.77" shape="156.30,821.98 160.72,818.25 165.39,817.32 170.29,819.21 175.44,823.91"/>
    </edge>
    <edge id=":1090_16" function="internal">
        <lane id=":1090_16_0" index="0" speed="3.65" length="4.67" shape="156.30,821.98 157.68,821.58 158.55,821.78 158.91,822.60 158.75,824.04"/>
    </edge>
    <edge id=":1092_0" function="internal">
        <lane id=":1092_0_0" index="0" speed="11.92" length="20.17" shape="78.66,784.44 73.77,780.72 69.09,778.48 64.63,777.72 60.38,778.44"/>
    </edge>
    <edge id=":1092_1" function="internal">
        <lane id=":1092_1_0" index="0" speed="13.89" length="25.11" shape="78.66,784.44 59.67,768.11"/>
        <lane id=":1092_1_1" index="1" speed="13.89" length="25.11" shape="80.79,782.05 61.71,765.64"/>
    </edge>
    <edge id=":1092_3" function="internal">
        <lane id=":1092_3_0" index="0" speed="12.48" length="3.13" shape="80.79,782.05 78.68,779.74"/>
    </edge>
    <edge id=":1092_4" function="internal">
        <lane id=":1092_4_0" index="0" speed="7.49" length="3.10" shape="80.79,782.05 78.70,779.76"/>
    </edge>
    <edge id=":1092_5" function="internal">
        <lane id=":1092_5_0" index="0" speed="3.65" length="1.32" shape="80.79,782.05 80.46,780.78"/>
    </edge>
    <edge id=":1092_26" function="internal">
        <lane id=":1092_26_0" index="0" speed="12.48" length="19.58" shape="78.68,779.74 76.54,777.40 73.91,772.48 72.88,767.27 73.48,761.78"/>
    </edge>
    <edge id=":1092_27" function="internal">
        <lane id=":1092_27_0" index="0" speed="7.49" length="17.24" shape="78.70,779.76 76.34,777.15 75.56,773.69 78.47,771.66 85.07,771.07"/>
    </edge>
    <edge id=":1092_28" function="internal">
        <lane id=":1092_28_0" index="0" speed="3.65" length="3.35" shape="80.46,780.78 80.43,780.66 80.66,779.79 81.49,779.46 82.92,779.66"/>
    </edge>
    <edge id=":1092_6" function="internal">
        <lane id=":1092_6_0" index="0" speed="5.46" length="10.00" shape="85.02,774.27 81.78,774.56 80.35,775.56 80.73,777.26 82.92,779.66"/>
    </edge>
    <edge id=":1092_7" function="internal">
        <lane id=":1092_7_0" index="0" speed="13.89" length="25.04" shape="85.02,774.27 79.73,774.65 72.60,775.70 65.52,777.08 60.38,778.44"/>
    </edge>
    <edge id=":1092_8" function="internal">
        <lane id=":1092_8_0" index="0" speed="13.89" length="25.23" shape="85.02,774.27 80.35,773.79 74.38,772.32 67.90,769.67 61.71,765.64"/>
    </edge>
    <edge id=":1092_9" function="internal">
        <lane id=":1092_9_0" index="0" speed="8.83" length="20.56" shape="85.02,774.27 78.83,773.41 74.84,771.04 73.05,767.16 73.48,761.78"/>
    </edge>
    <edge id=":1092_10" function="internal">
        <lane id=":1092_10_0" index="0" speed="3.65" length="4.67" shape="85.02,774.27 83.83,773.45 83.45,772.64 83.86,771.85 85.07,771.07"/>
    </edge>
    <edge id=":1092_11" function="internal">
        <lane id=":1092_11_0" index="0" speed="6.73" length="11.42" shape="79.69,763.33 79.31,766.67 80.08,769.08 82.00,770.54 85.07,771.07"/>
    </edge>
    <edge id=":1092_12" function="internal">
        <lane id=":1092_12_0" index="0" speed="11.01" length="17.51" shape="79.69,763.33 78.86,768.48 79.13,772.92 80.48,776.65 82.92,779.66"/>
    </edge>
    <edge id=":1092_13" function="internal">
        <lane id=":1092_13_0" index="0" speed="13.89" length="25.41" shape="79.69,763.33 77.63,767.68 73.73,771.66 67.98,775.24 60.38,778.44"/>
    </edge>
    <edge id=":1092_14" function="internal">
        <lane id=":1092_14_0" index="0" speed="8.17" length="19.91" shape="76.58,762.55 74.46,767.54 71.27,769.72 67.02,769.09 61.71,765.64"/>
    </edge>
    <edge id=":1092_15" function="internal">
        <lane id=":1092_15_0" index="0" speed="3.65" length="4.67" shape="76.58,762.55 75.51,763.52 74.64,763.72 73.96,763.14 73.48,761.78"/>
    </edge>
    <edge id=":1092_16" function="internal">
        <lane id=":1092_16_0" index="0" speed="5.75" length="9.17" shape="63.75,763.18 66.05,764.61 67.93,764.73 69.36,763.53 70.37,761.01"/>
    </edge>
    <edge id=":1092_17" function="internal">
        <lane id=":1092_17_0" index="0" speed="13.89" length="22.92" shape="63.75,763.18 68.00,765.75 73.98,768.29 80.17,770.25 85.07,771.07"/>
    </edge>
    <edge id=":1092_18" function="internal">
        <lane id=":1092_18_0" index="0" speed="13.89" length="25.28" shape="63.75,763.18 82.92,779.66"/>
    </edge>
    <edge id=":1092_19" function="internal">
        <lane id=":1092_19_0" index="0" speed="8.27" length="21.48" shape="63.75,763.18 68.00,767.84 68.86,771.93 66.32,775.47 60.38,778.44"/>
    </edge>
    <edge id=":1092_20" function="internal">
        <lane id=":1092_20_0" index="0" speed="3.65" length="4.67" shape="63.75,763.18 64.16,764.56 63.96,765.43 63.14,765.79 61.71,765.64"/>
    </edge>
    <edge id=":1092_21" function="internal">
        <lane id=":1092_21_0" index="0" speed="5.85" length="10.02" shape="59.32,775.43 61.75,774.12 62.62,772.46 61.93,770.46 59.67,768.11"/>
    </edge>
    <edge id=":1092_22" function="internal">
        <lane id=":1092_22_0" index="0" speed="12.16" length="18.93" shape="59.32,775.43 63.08,773.44 66.17,770.38 68.60,766.23 70.37,761.01"/>
    </edge>
    <edge id=":1092_23" function="internal">
        <lane id=":1092_23_0" index="0" speed="13.89" length="26.16" shape="59.32,775.43 64.63,774.03 72.09,772.59 79.60,771.48 85.07,771.07"/>
    </edge>
    <edge id=":1092_24" function="internal">
        <lane id=":1092_24_0" index="0" speed="13.29" length="4.52" shape="59.32,775.43 63.72,774.40"/>
    </edge>
    <edge id=":1092_25" function="internal">
        <lane id=":1092_25_0" index="0" speed="3.65" length="1.44" shape="59.32,775.43 60.72,775.78"/>
    </edge>
    <edge id=":1092_29" function="internal">
        <lane id=":1092_29_0" index="0" speed="13.29" length="20.72" shape="63.72,774.40 65.86,773.90 71.97,774.10 77.66,776.02 82.92,779.66"/>
    </edge>
    <edge id=":1092_30" function="internal">
        <lane id=":1092_30_0" index="0" speed="3.65" length="3.23" shape="60.72,775.78 61.36,776.40 61.25,777.29 60.38,778.44"/>
    </edge>
    <edge id=":1098_0" function="internal">
        <lane id=":1098_0_0" index="0" speed="13.08" length="28.16" shape="111.19,707.89 110.61,700.20 112.02,693.54 115.42,687.92 120.79,683.33"/>
    </edge>
    <edge id=":1098_1" function="internal">
        <lane id=":1098_1_0" index="0" speed="9.10" length="24.15" shape="111.19,707.89 111.16,701.86 113.79,698.08 119.09,696.55 127.05,697.28"/>
    </edge>
    <edge id=":1098_2" function="internal">
        <lane id=":1098_2_0" index="0" speed="3.65" length="4.67" shape="111.19,707.89 111.75,706.57 112.46,706.02 113.32,706.27 114.33,707.30"/>
    </edge>
    <edge id=":1098_3" function="internal">
        <lane id=":1098_3_0" index="0" speed="7.14" length="14.36" shape="125.80,703.56 120.34,702.84 116.60,703.23 114.60,704.71 114.33,707.30"/>
    </edge>
    <edge id=":1098_4" function="internal">
        <lane id=":1098_4_0" index="0" speed="7.46" length="19.74" shape="126.43,700.42 121.41,698.11 118.81,694.29 119.04,689.93 122.51,686.03"/>
    </edge>
    <edge id=":1098_5" function="internal">
        <lane id=":1098_5_0" index="0" speed="3.65" length="4.67" shape="126.43,700.42 125.41,699.40 125.17,698.54 125.72,697.83 127.05,697.28"/>
    </edge>
    <edge id=":1098_6" function="internal">
        <lane id=":1098_6_0" index="0" speed="5.47" length="9.81" shape="125.96,691.43 123.50,693.40 122.87,695.04 124.05,696.33 127.05,697.28"/>
    </edge>
    <edge id=":1098_7" function="internal">
        <lane id=":1098_7_0" index="0" speed="11.71" length="22.43" shape="124.23,688.73 119.12,692.76 115.77,697.19 114.17,702.04 114.33,707.30"/>
    </edge>
    <edge id=":1098_8" function="internal">
        <lane id=":1098_8_0" index="0" speed="3.65" length="4.67" shape="124.23,688.73 122.79,688.70 122.03,688.24 121.93,687.35 122.51,686.03"/>
    </edge>
    <edge id=":1101_0" function="internal">
        <lane id=":1101_0_0" index="0" speed="6.09" length="9.06" shape="182.38,662.38 181.16,660.12 179.57,658.97 177.61,658.92 175.27,659.98"/>
    </edge>
    <edge id=":1101_1" function="internal">
        <lane id=":1101_1_0" index="0" speed="13.89" length="29.28" shape="182.38,662.38 180.80,656.62 178.97,648.16 177.35,639.65 176.43,633.74"/>
    </edge>
    <edge id=":1101_2" function="internal">
        <lane id=":1101_2_0" index="0" speed="3.65" length="1.44" shape="182.38,662.38 182.72,660.98"/>
    </edge>
    <edge id=":1101_10" function="internal">
        <lane id=":1101_10_0" index="0" speed="3.65" length="3.23" shape="182.72,660.98 183.33,660.33 184.22,660.43 185.39,661.28"/>
    </edge>
    <edge id=":1101_3" function="internal">
        <lane id=":1101_3_0" index="0" speed="13.89" length="28.39" shape="179.61,633.38 180.73,638.34 182.91,645.12 185.64,652.73 188.39,660.17"/>
        <lane id=":1101_3_1" index="1" speed="13.89" length="28.39" shape="179.61,633.38 180.26,638.51 181.41,645.67 183.11,653.66 185.39,661.28"/>
    </edge>
    <edge id=":1101_5" function="internal">
        <lane id=":1101_5_0" index="0" speed="13.07" length="6.43" shape="179.61,633.38 179.91,639.80"/>
    </edge>
    <edge id=":1101_6" function="internal">
        <lane id=":1101_6_0" index="0" speed="3.65" length="1.44" shape="179.61,633.38 178.95,634.66"/>
    </edge>
    <edge id=":1101_11" function="internal">
        <lane id=":1101_11_0" index="0" speed="13.07" length="19.40" shape="179.91,639.80 180.01,641.89 179.14,648.71 176.98,653.84 173.55,657.28"/>
    </edge>
    <edge id=":1101_12" function="internal">
        <lane id=":1101_12_0" index="0" speed="3.65" length="3.23" shape="178.95,634.66 178.20,635.15 177.36,634.84 176.43,633.74"/>
    </edge>
    <edge id=":1101_7" function="internal">
        <lane id=":1101_7_0" index="0" speed="11.62" length="20.27" shape="170.11,651.89 173.43,648.89 175.59,644.86 176.59,639.81 176.43,633.74"/>
    </edge>
    <edge id=":1101_8" function="internal">
        <lane id=":1101_8_0" index="0" speed="8.36" length="18.15" shape="171.83,654.58 176.05,652.85 179.71,653.39 182.83,656.20 185.39,661.28"/>
    </edge>
    <edge id=":1101_9" function="internal">
        <lane id=":1101_9_0" index="0" speed="3.65" length="4.67" shape="171.83,654.58 173.27,654.61 174.04,655.07 174.13,655.96 173.55,657.28"/>
    </edge>
    <edge id=":1159_0" function="internal">
        <lane id=":1159_0_0" index="0" speed="3.65" length="4.67" shape="158.47,742.48 157.03,742.41 156.28,741.93 156.21,741.04 156.83,739.73"/>
    </edge>
    <edge id=":123_0" function="internal">
        <lane id=":123_0_0" index="0" speed="9.38" length="11.19" shape="436.13,408.61 432.78,408.32 429.92,408.64 427.55,409.56 425.68,411.07"/>
    </edge>
    <edge id=":123_1" function="internal">
        <lane id=":123_1_0" index="0" speed="8.23" length="19.09" shape="436.13,408.61 430.34,406.96 427.04,404.28 426.23,400.58 427.91,395.84"/>
    </edge>
    <edge id=":123_2" function="internal">
        <lane id=":123_2_0" index="0" speed="3.65" length="4.67" shape="436.13,408.61 435.08,407.62 434.81,406.77 435.33,406.04 436.64,405.45"/>
    </edge>
    <edge id=":123_3" function="internal">
        <lane id=":123_3_0" index="0" speed="5.88" length="9.11" shape="433.50,398.96 432.55,401.42 432.76,403.32 434.12,404.67 436.64,405.45"/>
    </edge>
    <edge id=":123_4" function="internal">
        <lane id=":123_4_0" index="0" speed="13.89" length="14.12" shape="433.50,398.96 431.47,402.75 430.08,405.36 428.44,407.80 425.68,411.07"/>
        <lane id=":123_4_1" index="1" speed="13.89" length="14.12" shape="430.70,397.40 428.78,401.01 427.47,403.50 425.92,405.82 423.30,408.93"/>
    </edge>
    <edge id=":123_6" function="internal">
        <lane id=":123_6_0" index="0" speed="3.65" length="1.44" shape="430.70,397.40 429.42,398.06"/>
    </edge>
    <edge id=":123_11" function="internal">
        <lane id=":123_11_0" index="0" speed="3.65" length="3.23" shape="429.42,398.06 428.53,398.02 428.02,397.28 427.91,395.84"/>
    </edge>
    <edge id=":123_7" function="internal">
        <lane id=":123_7_0" index="0" speed="13.89" length="13.19" shape="420.92,406.80 422.53,404.08 423.06,401.31 423.57,398.15 425.11,394.28"/>
        <lane id=":123_7_1" index="1" speed="13.89" length="13.19" shape="420.92,406.80 422.97,404.31 424.48,402.05 425.95,399.42 427.91,395.84"/>
    </edge>
    <edge id=":123_9" function="internal">
        <lane id=":123_9_0" index="0" speed="11.20" length="2.41" shape="420.92,406.80 422.95,405.50"/>
    </edge>
    <edge id=":123_10" function="internal">
        <lane id=":123_10_0" index="0" speed="3.65" length="1.44" shape="420.92,406.80 422.31,406.44"/>
    </edge>
    <edge id=":123_12" function="internal">
        <lane id=":123_12_0" index="0" speed="11.20" length="13.82" shape="422.95,405.50 423.04,405.44 426.37,404.76 430.90,404.76 436.64,405.45"/>
    </edge>
    <edge id=":123_13" function="internal">
        <lane id=":123_13_0" index="0" speed="3.65" length="3.23" shape="422.31,406.44 423.18,406.67 423.50,407.51 423.30,408.93"/>
    </edge>
    <edge id=":1270_0" function="internal">
        <lane id=":1270_0_0" index="0" speed="13.89" length="28.91" shape="652.00,76.88 646.45,78.92 638.69,82.50 631.11,86.44 626.10,89.57"/>
    </edge>
    <edge id=":1270_1" function="internal">
        <lane id=":1270_1_0" index="0" speed="13.89" length="31.69" shape="652.00,76.88 645.71,77.75 636.25,78.49 626.76,78.91 620.41,78.83"/>
    </edge>
    <edge id=":1270_2" function="internal">
        <lane id=":1270_2_0" index="0" speed="11.52" length="8.34" shape="652.00,76.88 644.58,77.57 643.73,77.31"/>
    </edge>
    <edge id=":1270_3" function="internal">
        <lane id=":1270_3_0" index="0" speed="8.25" length="8.62" shape="652.00,76.88 644.59,77.80 643.52,77.37"/>
    </edge>
    <edge id=":1270_4" function="internal">
        <lane id=":1270_4_0" index="0" speed="3.65" length="1.44" shape="652.00,76.88 650.64,76.38"/>
    </edge>
    <edge id=":1270_26" function="internal">