<?xml version='1.0' encoding='UTF-8'?>
<routes>
  <vehicle id="0" depart="0.00" departLane="best" departSpeed="max">
    <route edges="-2003 -1632 -1401 -1093 -915 -726 718 -910 912 1947" />
  </vehicle>
  <vehicle id="1" depart="0.90" departLane="best" departSpeed="max">
    <route edges="-1995 -1632 -1401 -1093 -915 917 1102 1407 -1615 -173 -109 -69 -55 -44 -30 -25 -18 217 -194" />
    <stop parkingArea="pa_-194" duration="100000" />
  </vehicle>
  <vehicle id="2" depart="1.80" departLane="0" departSpeed="max" departPos="stop">
    <route edges="-1407 1407 -1615 -173 -109 -69 -55 -44 112 -133 137 153 1932" />
    <stop parkingArea="pa_-1407" duration="5" />
  </vehicle>
  <vehicle id="3" depart="2.70" departLane="best" departSpeed="max">
    <route edges="-1947 -912 -714 -482 -425 -384 -231 221 -182 -148 -124 112 -133 137 153 1932" />
  </vehicle>
  <vehicle id="4" depart="3.60" departLane="best" departSpeed="max">
    <route edges="-1932 -153 -149 151 198 -400 467 601 879 -879" />
    <stop parkingArea="pa_-879" duration="100000" />
  </vehicle>
  <vehicle id="5" depart="4.50" departLane="0" departSpeed="max" departPos="stop">
    <route edges="385 -182 -148 -124 112 -133 -91 89 132 151 204 262 583 1793 1802" />
    <stop parkingArea="pa_385" duration="5" />
  </vehicle>
  <vehicle id="6" depart="5.40" departLane="best" departSpeed="max">
    <route edges="-1657 -1615 -173 -109 -69 -55 -44 112 -133 137 165 209 370 407" />
  </vehicle>
  <vehicle id="7" depart="6.30" departLane="best" departSpeed="max">
    <route edges="-101 215 375 -245 -180 109 173 1615 -1407 -1403 -1100" />
    <stop parkingArea="pa_-1100" duration="100000" />
  </vehicle>
  <vehicle id="8" depart="7.20" departLane="0" departSpeed="max" departPos="stop">
    <route edges="869 -581 -262 -204 -151 -132 -89 91 133 -112 124 148 182 -1773 1779" />
    <stop parkingArea="pa_869" duration="5" />
  </vehicle>
  <vehicle id="9" depart="8.10" departLane="best" departSpeed="max">
    <route edges="-1932 402 -469 -405 407" />
  </vehicle>
  <vehicle id="10" depart="9.00" departLane="best" departSpeed="max">
    <route edges="-1979 -1623 -718 -488 -431 -384 -231 221 -182 -148 -124 112 -133 137 153" />
    <stop parkingArea="pa_153" duration="100000" />
  </vehicle>
  <vehicle id="11" depart="9.90" departLane="0" departSpeed="max" departPos="stop">
    <route edges="104 -89 91 133 -112 124 148 182 -221 231 384 425 482 714 912 1943" />
    <stop parkingArea="pa_104" duration="5" />
  </vehicle>
  <vehicle id="12" depart="10.80" departLane="best" departSpeed="max">
    <route edges="-1910 -1604 -876 874 -595 -467 400 -198 -151 -132 -89 91 133 -112 44 55 69 109 173 1615 -1407 -1102 -917 915 1093 1655" />
  </vehicle>
  <vehicle id="13" depart="11.70" departLane="best" departSpeed="max">
    <route edges="-1973 -912 -714 -482 -425 -384 -231 221 -182 -148 -124 112 -133 -91 -80" />
    <stop parkingArea="pa_-80" duration="100000" />
  </vehicle>
  <vehicle id="14" depart="12.60" departLane="0" departSpeed="max" departPos="stop">
    <route edges="384 425 482 -569 2012" />
    <stop parkingArea="pa_384" duration="5" />
  </vehicle>
  <vehicle id="15" depart="13.50" departLane="best" departSpeed="max">
    <route edges="-1985 -1623 -718 -488 -431 -384 -231 221 -182 -148 -124 112 -133 -91 89 132 151 198 -400 467 595 -874 876 1604 1910" />
  </vehicle>
  <vehicle id="16" depart="14.40" departLane="best" departSpeed="max">
    <route edges="-407 405 469 -469 -405" />
    <stop parkingArea="pa_-405" duration="100000" />
  </vehicle>
  <vehicle id="17" depart="15.30" departLane="0" departSpeed="max" departPos="stop">
    <route edges="-381 381 384 425 482 714 912 1943" />
    <stop parkingArea="pa_-381" duration="5" />
  </vehicle>
  <vehicle id="18" depart="16.20" departLane="best" departSpeed="max">
    <route edges="-2003 -1632 -1401 -1093 -915 917 1160" />
  </vehicle>
  <vehicle id="19" depart="17.10" departLane="best" departSpeed="max">
    <route edges="-1657 -1615 -173 -109 -69 -55 -44 112 -133 -91 89 132 151 198 -400 467 595 -874 874" />
    <stop parkingArea="pa_874" duration="100000" />
  </vehicle>
  <vehicle id="20" depart="18.00" departLane="0" departSpeed="max" departPos="stop">
    <route edges="445 -445 -389 -375 -215 -9 3 377 869 -581 583 1793 1900" />
    <stop parkingArea="pa_445" duration="5" />
  </vehicle>
  <vehicle id="21" depart="18.90" departLane="best" departSpeed="max">
    <route edges="-1979 -1623 -718 726 915 1091 1399" />
  </vehicle>
  <vehicle id="22" depart="19.80" departLane="best" departSpeed="max">
    <route edges="-1995 -1632 -1401 -1093 -915 -726 -488 492 729 -909 -225" />
    <stop parkingArea="pa_-225" duration="100000" />
  </vehicle>
  <vehicle id="23" depart="20.70" departLane="0" departSpeed="max" departPos="stop">
    <route edges="-89 89 132 151 198 -400 467 595 -874 876 1604 1928" />
    <stop parkingArea="pa_-89" duration="5" />
  </vehicle>
  <vehicle id="24" depart="21.60" departLane="best" departSpeed="max">
    <route edges="-1160 1102 1407 -1615 -173 -109 -69 -55 -44 112 -133 -91 89 132 151 204 262 583 1793 1900" />
  </vehicle>
  <vehicle id="25" depart="22.50" departLane="best" departSpeed="max">
    <route edges="-1580 -1271 -1083 -165 -137 133 -112 124 148 182 -385 393 457 572" />
    <stop parkingArea="pa_572" duration="100000" />
  </vehicle>
  <vehicle id="26" depart="23.40" departLane="0" departSpeed="max" departPos="stop">
    <route edges="249 -204 -151 -132 -89 91 133 -112 124 148 182 -1773 1779" />
    <stop parkingArea="pa_249" duration="5" />
  </vehicle>
  <vehicle id="27" depart="24.30" departLane="best" departSpeed="max">
    <route edges="-2003 -1632 -1401 -1093 -915 -726 -488 -431 -384 -231 221 -1773 1779" />
  </vehicle>
  <vehicle id="28" depart="25.20" departLane="best" departSpeed="max">
    <route edges="-17 3 217 249 266 467 601 899 -1276 1276 -899" />
    <stop parkingArea="pa_-899" duration="100000" />
  </vehicle>
  <vehicle id="29" depart="26.10" departLane="0" departSpeed="max" departPos="stop">
    <route edges="-402 -153 -137 133 -112 44 55 69 109 173 1615 -1407 -1102 -917 915 1093 1655" />
    <stop parkingArea="pa_-402" duration="5" />
  </vehicle>
  <vehicle id="30" depart="27.00" departLane="best" departSpeed="max">
    <route edges="-407 -370 -209 -165 -137 133 -112 44 55 69 109 173 1615 -1407 -1102 -917 915 1091 1399" />
  </vehicle>
  <vehicle id="31" depart="27.90" departLane="best" departSpeed="max">
    <route edges="-1943 -912 -714 -482 -425 -384 -231 221 -1773 -1574 247" />
    <stop parkingArea="pa_247" duration="100000" />
  </vehicle>
  <vehicle id="32" depart="28.80" departLane="0" departSpeed="max" departPos="stop">
    <route edges="494 -437 445 569 714 910 -718 726 915 1093 1401 1632 1995" />
    <stop parkingArea="pa_494" duration="5" />
  </vehicle>
  <vehicle id="33" depart="29.70" departLane="best" departSpeed="max">
    <route edges="-1657 -1407 -1102 -917 915 1093 1655" />
  </vehicle>
  <vehicle id="34" depart="30.60" departLane="best" departSpeed="max">
    <route edges="-101 -9 3 104 132 149 165 209 370 405" />
    <stop parkingArea="pa_405" duration="100000" />
  </vehicle>
  <vehicle id="35" depart="31.50" departLane="0" departSpeed="max" departPos="stop">
    <route edges="-480 -425 431 492 727 1615 1657" />
    <stop parkingArea="pa_-480" duration="5" />
  </vehicle>
  <vehicle id="36" depart="32.40" departLane="best" departSpeed="max">
    <route edges="-1655 -1093 -915 -726 718 -910 912 1943" />
  </vehicle>
  <vehicle id="37" depart="33.30" departLane="best" departSpeed="max">
    <route edges="-1943 -912 -714 -569 -445 -389 -375 -215 -9 3 377 869 -581 583 1793 -1596" />
    <stop parkingArea="pa_-1596" duration="100000" />
  </vehicle>
  <vehicle id="38" depart="34.20" departLane="0" departSpeed="max" departPos="stop">
    <route edges="431 488 718 -910 912 1947" />
    <stop parkingArea="pa_431" duration="5" />
  </vehicle>
  <vehicle id="39" depart="35.10" departLane="best" departSpeed="max">
    <route edges="-1928 -1604 -876 874 -595 -467 400 -198 -151 -132 -89 91 133 -112 124 148 182 1563" />
  </vehicle>
  <vehicle id="40" depart="36.00" departLane="best" departSpeed="max">
    <route edges="-1393 -1091 -915 917 1102 1407 -1615 -173 -109 -69 -55 -44 112 -133 -91 89 132 151 198 -400 467 595 -874 876 1596" />
    <stop parkingArea="pa_1596" duration="100000" />
  </vehicle>
  <vehicle id="41" depart="36.90" departLane="0" departSpeed="max" departPos="stop">
    <route edges="-91 89 132 151 204 262 583 1793 1900" />
    <stop parkingArea="pa_-91" duration="5" />
  </vehicle>
  <vehicle id="42" depart="37.80" departLane="best" departSpeed="max">
    <route edges="-1910 -1604 -876 874 -595 -578 -464 462 1064 1271 1580" />
  </vehicle>
  <vehicle id="43" depart="38.70" departLane="best" departSpeed="max">
    <route edges="-1657 -1615 -173 -109 -69 -55 -44 112 -133 -91 89 132 151 198 -400 467 601 879 1069 -885" />
    <stop parkingArea="pa_-885" duration="100000" />
  </vehicle>
  <vehicle id="44" depart="39.60" departLane="0" departSpeed="max" departPos="stop">
    <route edges="-467 400 -198 -151 -132 -89 91 133 -112 44 55 69 109 173 1615 1657" />
    <stop parkingArea="pa_-467" duration="5" />
  </vehicle>
  <vehicle id="45" depart="40.50" departLane="best" departSpeed="max">
    <route edges="-1665 -1615 -173 -109 -69 -55 -44 112 -133 -91 89 132 151 198 -400 467 595 -874 876 1604 1928" />
  </vehicle>
  <vehicle id="46" depart="41.40" departLane="best" departSpeed="max">
    <route edges="-449 -393 -375 -215 -9 3 217 249 266 467 595 -595" />
    <stop parkingArea="pa_-595" duration="100000" />
  </vehicle>
  <vehicle id="47" depart="42.30" departLane="0" departSpeed="max" departPos="stop">
    <route edges="-3 9 215 375 389 445 2012" />
    <stop parkingArea="pa_-3" duration="5" />
  </vehicle>
  <vehicle id="48" depart="43.20" departLane="best" departSpeed="max">
    <route edges="-1657 -1407 -1102 -917 915 1091 1393" />
  </vehicle>
  <vehicle id="49" depart="44.10" departLane="best" departSpeed="max">
    <route edges="-1399 -1091 -915 917 1102 1407 -1615 -173 -109 -69 -55 -44 -30 -25 -18 217 -194" />
    <stop parkingArea="pa_-194" duration="100000" />
  </vehicle>
  <vehicle id="50" depart="45.00" departLane="0" departSpeed="max" departPos="stop">
    <route edges="1091 -1091 -915 917 1102 1407 -1615 -173 -109 -69 -55 -44 112 -133 -91 89 132 151 198 -400 467 595 -874 876 1604 1910" />
    <stop parkingArea="pa_1091" duration="5" />
  </vehicle>
  <vehicle id="51" depart="45.90" departLane="best" departSpeed="max">
    <route edges="-1928 -1604 -876 874 -595 -578 -464 462 1064 -1083 209 370 407" />
  </vehicle>
  <vehicle id="52" depart="46.80" departLane="best" departSpeed="max">
    <route edges="-1928 -1604 -876 874 1275 -1075 -879" />
    <stop parkingArea="pa_-879" duration="100000" />
  </vehicle>
  <vehicle id="53" depart="47.70" departLane="0" departSpeed="max" departPos="stop">
    <route edges="-30 30 44 55 69 109 173 1615 -1407 -1102 1160" />
    <stop parkingArea="pa_-30" duration="5" />
  </vehicle>
  <vehicle id="54" depart="48.60" departLane="best" departSpeed="max">
    <route edges="-1943 -912 910 -718 726 915 1091 1399" />
  </vehicle>
  <vehicle id="55" depart="49.50" departLane="best" departSpeed="max">
    <route edges="-1979 -1623 -718 726 917 1100 -1100" />
    <stop parkingArea="pa_-1100" duration="100000" />
  </vehicle>
  <vehicle id="56" depart="50.40" departLane="0" departSpeed="max" departPos="stop">
    <route edges="-124 124 148 182 -1773 1779" />
    <stop parkingArea="pa_-124" duration="5" />
  </vehicle>
  <vehicle id="57" depart="51.30" departLane="best" departSpeed="max">
    <route edges="-1160 -917 -726 718 1623 1979" />
  </vehicle>
  <vehicle id="58" depart="52.20" departLane="best" departSpeed="max">
    <route edges="-449 -393 385 -182 -148 -124 112 -133 137 153" />
    <stop parkingArea="pa_153" duration="100000" />
  </vehicle>
  <vehicle id="59" depart="53.10" departLane="0" departSpeed="max" departPos="stop">
    <route edges="-65 69 109 173 1615 -1407 -1102 -917 915 1093 1401 1632 2003" />
    <stop parkingArea="pa_-65" duration="5" />
  </vehicle>
  <vehicle id="60" depart="54.00" departLane="best" departSpeed="max">
    <route edges="-1943 -912 -714 -569 -445 -389 393 449" />
  </vehicle>
  <vehicle id="61" depart="54.90" departLane="best" departSpeed="max">
    <route edges="-1563 -182 -148 -124 112 -133 -91 -80" />
    <stop parkingArea="pa_-80" duration="100000" />
  </vehicle>
  <vehicle id="62" depart="55.80" departLane="0" departSpeed="max" departPos="stop">
    <route edges="1610 -1610 -415 405 469 -402 1932" />
    <stop parkingArea="pa_1610" duration="5" />
  </vehicle>
  <vehicle id="63" depart="56.70" departLane="best" departSpeed="max">
    <route edges="-101 215 375 -245 231 384 431 488 726 915 1091 1393" />
  </vehicle>
  <vehicle id="64" depart="57.60" departLane="best" departSpeed="max">
    <route edges="-1995 -1632 -1401 -1093 -915 917 1102 1407 -1615 -173 -109 -69 -55 -44 112 -133 137 153 402 -469 -405" />
    <stop parkingArea="pa_-405" duration="100000" />
  </vehicle>
  <vehicle id="65" depart="58.50" departLane="0" departSpeed="max" departPos="stop">
    <route edges="-1588 -1271 -1083 -165 -137 133 -112 44 55 69 109 173 1615 -1407 -1102 -917 915 1093 1401 1632 1995" />
    <stop parkingArea="pa_-1588" duration="5" />
  </vehicle>
  <vehicle id="66" depart="59.40" departLane="best" departSpeed="max">
    <route edges="-2012 -445 -389 -245 -180 109 173 1615 1657" />
  </vehicle>
  <vehicle id="67" depart="60.30" departLane="best" departSpeed="max">
    <route edges="-17 3 377 869 -581 587 874" />
    <stop parkingArea="pa_874" duration="100000" />
  </vehicle>
  <vehicle id="68" depart="61.20" departLane="0" departSpeed="max" departPos="stop">
    <route edges="-435 -389 385 -182 -148 -124 112 -133 137 165 209 370 407" />
    <stop parkingArea="pa_-435" duration="5" />
  </vehicle>
  <vehicle id="69" depart="62.10" departLane="best" departSpeed="max">
    <route edges="-1580 -1271 -1064 -462 464 578 595 -874 876 1604 1910" />
  </vehicle>
  <vehicle id="70" depart="63.00" departLane="best" departSpeed="max">
    <route edges="-1941 -912 -714 -482 -425 -384 -381 -225" />
    <stop parkingArea="pa_-225" duration="100000" />
  </vehicle>
  <vehicle id="71" depart="63.90" departLane="0" departSpeed="max" departPos="stop">
    <route edges="372 -402 -153 -149 151 204 262 583 1793 1900" />
    <stop parkingArea="pa_372" duration="5" />
  </vehicle>
  <vehicle id="72" depart="64.80" departLane="best" departSpeed="max">
    <route edges="-1655 -1093 -915 917 1102 1407 -1615 -173 -109 -69 -55 -44 112 -133 -91 89 132 151 204 262 583 1793 1900" />
  </vehicle>
  <vehicle id="73" depart="65.70" departLane="best" departSpeed="max">
    <route edges="-1995 -1632 -1401 -1093 -915 -726 -488 -431 -384 -231 245 393 457 572" />
    <stop parkingArea="pa_572" duration="100000" />
  </vehicle>
  <vehicle id="74" depart="66.60" departLane="0" departSpeed="max" departPos="stop">
    <route edges="-1102 1102 1407 -1615 -173 -109 -69 -55 -44 112 -133 -91 89 132 151 204 262 583 1793 1900" />
    <stop parkingArea="pa_-1102" duration="5" />
  </vehicle>
  <vehicle id="75" depart="67.50" departLane="best" departSpeed="max">
    <route edges="-1160 1102 1407 -1615 -173 -109 -69 -55 -44 112 -133 137 165 1083 1271 1580" />
  </vehicle>
  <vehicle id="76" depart="68.40" departLane="best" departSpeed="max">
    <route edges="-1665 -1615 -173 -109 -69 -55 -44 112 -133 -91 89 132 151 198 -400 467 601 899 -1276 1276 -899" />
    <stop parkingArea="pa_-899" duration="100000" />
  </vehicle>
  <vehicle id="77" depart="69.30" departLane="best" departSpeed="max">
    <route edges="-1900 -1793 -583 581 -869 -377 -3 9 101" />
  </vehicle>
  <vehicle id="78" depart="70.20" departLane="best" departSpeed="max">
    <route edges="-1910 -1604 -876 874 -595 -467 400 -198 -151 -132 -89 91 133 -112 124 148 190 247" />
    <stop parkingArea="pa_247" duration="100000" />
  </vehicle>
  <vehicle id="79" depart="71.10" departLane="best" departSpeed="max">
    <route edges="-1900 -1793 -583 -262 -204 -151 -132 -89 91 133 -112 44 55 69 109 173 1615 1665" />
  </vehicle>
  <vehicle id="80" depart="72.00" departLane="best" departSpeed="max">
    <route edges="-449 -393 385 -182 -148 -124 112 -133 137 165 209 370 405" />
    <stop parkingArea="pa_405" duration="100000" />
  </vehicle>
  <vehicle id="81" depart="72.90" departLane="best" departSpeed="max">
    <route edges="-1928 -1604 -876 -587 581 -869 -377 -3 17" />
  </vehicle>
  <vehicle id="82" depart="73.80" departLane="best" departSpeed="max">
    <route edges="-1932 -153 -149 151 204 262 583 1793 -1596" />
    <stop parkingArea="pa_-1596" duration="100000" />
  </vehicle>
  <vehicle id="83" depart="74.70" departLane="best" departSpeed="max">
    <route edges="-1910 -1604 -876 874 -595 -467 400 -198 -151 -132 -89 91 133 -112 44 55 69 109 173 1615 -1407 -1102 -917 915 1093 1401 1632 1995" />
  </vehicle>
  <vehicle id="84" depart="75.60" departLane="best" departSpeed="max">
    <route edges="-1932 -153 -149 151 198 -400 467 595 -874 876 1596" />
    <stop parkingArea="pa_1596" duration="100000" />
  </vehicle>
  <vehicle id="85" depart="76.50" departLane="best" departSpeed="max">
    <route edges="-2003 -1632 -1401 -1093 -915 917 1102 1407 -1615 -173 -109 -69 -55 -44 112 -133 137 165 209 370 407" />
  </vehicle>
  <vehicle id="86" depart="77.40" departLane="best" departSpeed="max">
    <route edges="-1657 -1615 -173 -109 -69 -55 -44 112 -133 -91 89 132 151 198 -400 467 601 879 1069 -885" />
    <stop parkingArea="pa_-885" duration="100000" />
  </vehicle>
  <vehicle id="87" depart="78.30" departLane="best" departSpeed="max">
    <route edges="-1943 -912 910 1623 1985" />
  </vehicle>
  <vehicle id="88" depart="79.20" departLane="best" departSpeed="max">
    <route edges="-1928 -1604 -876 874 -595" />
    <stop parkingArea="pa_-595" duration="100000" />
  </vehicle>
  <vehicle id="89" depart="80.10" departLane="best" departSpeed="max">
    <route edges="-1995 -1632 -1401 -1093 -915 917 1102 1407 -1615 -173 -109 -69 -55 -44 112 -133 137 153 1932" />
  </vehicle>
  <vehicle id="90" depart="81.00" departLane="best" departSpeed="max">
    <route edges="-1943 -912 -714 -569 -445 -389 -375 -215 -9 3 217 -194" />
    <stop parkingArea="pa_-194" duration="100000" />
  </vehicle>
  <vehicle id="91" depart="81.90" departLane="best" departSpeed="max">
    <route edges="-1563 -221 231 384 431 488 726 915 1093 1655" />
  </vehicle>
  <vehicle id="92" depart="82.80" departLane="best" departSpeed="max">
    <route edges="-1563 -182 -148 -124 112 -133 -91 89 132 151 198 -400 467 601 879 -879" />
    <stop parkingArea="pa_-879" duration="100000" />
  </vehicle>
  <vehicle id="93" depart="83.70" departLane="best" departSpeed="max">
    <route edges="-17 7 25 30 44 55 69 109 173 1615 -1407 -1102 -917 915 1093 1655" />
  </vehicle>
  <vehicle id="94" depart="84.60" departLane="best" departSpeed="max">
    <route edges="-1900 -1793 -583 -262 -204 -151 -132 -89 91 133 -112 44 55 69 109 173 1615 -1407 -1403 -1100" />
    <stop parkingArea="pa_-1100" duration="100000" />
  </vehicle>
  <vehicle id="95" depart="85.50" departLane="best" departSpeed="max">
    <route edges="-1160 -917 -726 718 -910 912 1947" />
  </vehicle>
  <vehicle id="96" depart="86.40" departLane="best" departSpeed="max">
    <route edges="-1655 -1093 -915 917 1102 1407 -1615 -173 -109 -69 -55 -44 112 -133 137 153" />
    <stop parkingArea="pa_153" duration="100000" />
  </vehicle>
  <vehicle id="97" depart="87.30" departLane="best" departSpeed="max">
    <route edges="-2003 -1632 -1401 -1093 -915 -726 718 -910 912 1943" />
  </vehicle>
  <vehicle id="98" depart="88.20" departLane="best" departSpeed="max">
    <route edges="-1973 -912 -714 -482 -425 -384 -231 221 -182 -148 -124 112 -133 -91 -80" />
    <stop parkingArea="pa_-80" duration="100000" />
  </vehicle>
  <vehicle id="99" depart="89.10" departLane="best" departSpeed="max">
    <route edges="-1160 -917 915 1093 1401 1632 2003" />
  </vehicle>
  <vehicle id="100" depart="90.00" departLane="best" departSpeed="max">
    <route edges="-1941 -912 -714 -482 -425 -384 -231 221 -182 -148 -124 112 -133 137 153 402 -469 -405" />
    <stop parkingArea="pa_-405" duration="100000" />
  </vehicle>
  <vehicle id="101" depart="90.90" departLane="best" departSpeed="max">
    <route edges="-1779 1773 -221 231 384 431 488 726 917 1160" />
  </vehicle>
  <vehicle id="102" depart="91.80" departLane="best" departSpeed="max">
    <route edges="-2003 -1632 -1401 -1093 -915 917 1102 1407 -1615 -173 -109 -69 -55 -44 112 -133 -91 89 132 151 198 -400 467 595 -874 874" />
    <stop parkingArea="pa_874" duration="100000" />
  </vehicle>
  <vehicle id="103" depart="92.70" departLane="best" departSpeed="max">
    <route edges="-1160 -917 -726 718 -910 912 1947" />
  </vehicle>
  <vehicle id="104" depart="93.60" departLane="best" departSpeed="max">
    <route edges="-1393 -1091 -915 -726 -488 492 729 -909 -225" />
    <stop parkingArea="pa_-225" duration="100000" />
  </vehicle>
  <vehicle id="105" depart="94.50" departLane="best" departSpeed="max">
    <route edges="-1932 -153 -137 133 -112 124 148 182 -221 231 384 425 482 714 912 1941" />
  </vehicle>
  <vehicle id="106" depart="95.40" departLane="best" departSpeed="max">
    <route edges="-1665 -1615 -173 -109 180 245 393 457 572" />
    <stop parkingArea="pa_572" duration="100000" />
  </vehicle>
  <vehicle id="107" depart="96.30" departLane="best" departSpeed="max">
    <route edges="-1941 -912 -714 -482 -425 -384 -231 221 -182 -148 -124 112 -133 137 165 1083 1271 1580" />
  </vehicle>
  <vehicle id="108" depart="97.20" departLane="best" departSpeed="max">
    <route edges="-2012 -445 -389 -375 -215 -9 3 217 249 266 467 601 899 -1276 1276 -899" />
    <stop parkingArea="pa_-899" duration="100000" />
  </vehicle>
  <vehicle id="109" depart="98.10" departLane="best" departSpeed="max">
    <route edges="-1160 -917 -726 718 -910 912 1941" />
  </vehicle>
  <vehicle id="110" depart="99.00" departLane="best" departSpeed="max">
    <route edges="-407 -370 -209 -165 -137 133 -112 124 148 190 247" />
    <stop parkingArea="pa_247" duration="100000" />
  </vehicle>
  <vehicle id="111" depart="99.90" departLane="best" departSpeed="max">
    <route edges="-1393 -1091 -915 917 1102 1407 -1615 -173 -109 -69 -55 -44 112 -133 137 165 1083 1271 1580" />
  </vehicle>
  <vehicle id="112" depart="100.80" departLane="best" departSpeed="max">
    <route edges="-1910 -1604 -876 874 -595 -578 -464 462 1064 -1083 209 370 405" />
    <stop parkingArea="pa_405" duration="100000" />
  </vehicle>
  <vehicle id="113" depart="101.70" departLane="best" departSpeed="max">
    <route edges="-1393 -1091 -915 -726 718 -910 912 1973" />
  </vehicle>
  <vehicle id="114" depart="102.60" departLane="best" departSpeed="max">
    <route edges="-1779 1773 -182 -148 -124 112 -133 -91 89 132 151 204 262 583 1793 -1596" />
    <stop parkingArea="pa_-1596" duration="100000" />
  </vehicle>
  <vehicle id="115" depart="103.50" departLane="best" departSpeed="max">
    <route edges="-1393 -1091 -915 -726 718 1623 1985" />
  </vehicle>
  <vehicle id="116" depart="104.40" departLane="best" departSpeed="max">
    <route edges="-407 -370 -209 1083 -1064 -462 464 578 595 -874 876 1596" />
    <stop parkingArea="pa_1596" duration="100000" />
  </vehicle>
  <vehicle id="117" depart="105.30" departLane="best" departSpeed="max">
    <route edges="-1657 -1615 -173 -109 -69 -55 -44 112 -133 -91 89 132 151 204 262 583 1793 1900" />
  </vehicle>
  <vehicle id="118" depart="106.20" departLane="best" departSpeed="max">
    <route edges="-1941 -912 -714 -569 -445 -389 -375 -215 -9 3 217 249 266 467 601 879 1069 -885" />
    <stop parkingArea="pa_-885" duration="100000" />
  </vehicle>
  <vehicle id="119" depart="107.10" departLane="best" departSpeed="max">
    <route edges="-1399 -1091 -915 -726 718 -910 912 1947" />
  </vehicle>
  <vehicle id="120" depart="108.00" departLane="best" departSpeed="max">
    <route edges="-1665 -1615 -173 -109 -69 -55 -44 112 -133 -91 89 132 151 198 -400 467 595 -595" />
    <stop parkingArea="pa_-595" duration="100000" />
  </vehicle>
  <vehicle id="121" depart="108.90" departLane="best" departSpeed="max">
    <route edges="-1657 -1407 -1102 -917 -726 718 -910 912 1947" />
  </vehicle>
  <vehicle id="122" depart="109.80" departLane="best" departSpeed="max">
    <route edges="-449 -393 -375 -215 -9 3 217 -194" />
    <stop parkingArea="pa_-194" duration="100000" />
  </vehicle>
  <vehicle id="123" depart="110.70" departLane="best" departSpeed="max">
    <route edges="-1973 -912 910 -718 726 917 1160" />
  </vehicle>
  <vehicle id="124" depart="111.60" departLane="best" departSpeed="max">
    <route edges="-101 -9 3 217 249 266 467 601 879 -879" />
    <stop parkingArea="pa_-879" duration="100000" />
  </vehicle>
  <vehicle id="125" depart="112.50" departLane="best" departSpeed="max">
    <route edges="-1973 -912 910 -718 726 915 1091 1393" />
  </vehicle>
  <vehicle id="126" depart="113.40" departLane="best" departSpeed="max">
    <route edges="-17 7 25 30 44 55 69 109 173 1615 -1407 -1403 -1100" />
    <stop parkingArea="pa_-1100" duration="100000" />
  </vehicle>
  <vehicle id="127" depart="114.30" departLane="best" departSpeed="max">
    <route edges="-1910 -1604 -876 874 -595 -467 400 -198 -151 -132 -89 91 133 -112 124 148 182 -221 231 384 431 488 718 1623 1985" />
  </vehicle>
  <vehicle id="128" depart="115.20" departLane="best" departSpeed="max">
    <route edges="-2003 -1632 -1401 -1093 -915 917 1102 1407 -1615 -173 -109 -69 -55 -44 112 -133 137 153" />
    <stop parkingArea="pa_153" duration="100000" />
  </vehicle>
  <vehicle id="129" depart="116.10" departLane="best" departSpeed="max">
    <route edges="-1941 -912 -714 -482 -425 -384 -231 221 -1773 1779" />
  </vehicle>
  <vehicle id="130" depart="117.00" departLane="best" departSpeed="max">
    <route edges="-17 3 104 -89 -80" />
    <stop parkingArea="pa_-80" duration="100000" />
  </vehicle>
  <vehicle id="131" depart="117.90" departLane="best" departSpeed="max">
    <route edges="-1665 -1407 -1102 -917 915 1093 1655" />
  </vehicle>
  <vehicle id="132" depart="118.80" departLane="best" departSpeed="max">
    <route edges="-449 -393 385 -182 -148 -124 112 -133 137 153 402 -469 -405" />
    <stop parkingArea="pa_-405" duration="100000" />
  </vehicle>
  <vehicle id="133" depart="119.70" departLane="best" departSpeed="max">
    <route edges="-1985 -1623 -718 726 915 1093 1401 1632 1995" />
  </vehicle>
  <vehicle id="134" depart="120.60" departLane="best" departSpeed="max">
    <route edges="-1947 -912 -714 -569 -445 -389 -375 -215 -9 3 377 869 -581 587 874" />
    <stop parkingArea="pa_874" duration="100000" />
  </vehicle>
  <vehicle id="135" depart="121.50" departLane="best" departSpeed="max">
    <route edges="-1779 1773 -221 -180 109 173 1615 1657" />
  </vehicle>
  <vehicle id="136" depart="122.40" departLane="best" departSpeed="max">
    <route edges="-1947 -912 -714 -482 -425 -384 -381 -225" />
    <stop parkingArea="pa_-225" duration="100000" />
  </vehicle>
  <vehicle id="137" depart="123.30" departLane="best" departSpeed="max">
    <route edges="-1665 -1615 -173 -109 -69 -55 -44 112 -133 -91 89 132 151 204 262 583 1793 1900" />
  </vehicle>
  <vehicle id="138" depart="124.20" departLane="best" departSpeed="max">
    <route edges="-1985 -1623 -910 -714 -569 -445 -389 393 457 572" />
    <stop parkingArea="pa_572" duration="100000" />
  </vehicle>
  <vehicle id="139" depart="125.10" departLane="best" departSpeed="max">
    <route edges="-1563 -221 231 384 431 488 718 1623 1985" />
  </vehicle>
  <vehicle id="140" depart="126.00" departLane="best" departSpeed="max">
    <route edges="-1932 -153 -149 151 198 -400 467 601 899 -1276 1276 -899" />
    <stop parkingArea="pa_-899" duration="100000" />
  </vehicle>
  <vehicle id="141" depart="126.90" departLane="best" departSpeed="max">
    <route edges="-1979 -1623 -910 -714 -569 -445 -389 -375 -215 -9 17" />
  </vehicle>
  <vehicle id="142" depart="127.80" departLane="best" departSpeed="max">
    <route edges="-1928 -1604 -876 874 -595 -467 400 -198 -151 -132 -89 91 133 -112 124 148 190 247" />
    <stop parkingArea="pa_247" duration="100000" />
  </vehicle>
  <vehicle id="143" depart="128.70" departLane="best" departSpeed="max">
    <route edges="-1928 -1604 -876 874 -595 -467 400 -198 -151 -132 -89 91 133 -112 124 148 182 -1773 1779" />
  </vehicle>
  <vehicle id="144" depart="129.60" departLane="best" departSpeed="max">
    <route edges="-1943 -912 -714 -482 -425 -384 -231 221 -182 -148 -124 112 -133 137 165 209 370 405" />
    <stop parkingArea="pa_405" duration="100000" />
  </vehicle>
  <vehicle id="145" depart="130.50" departLane="best" departSpeed="max">
    <route edges="-2012 569 714 910 -718 726 915 1091 1393" />
  </vehicle>
  <vehicle id="146" depart="131.40" departLane="best" departSpeed="max">
    <route edges="-101 -9 3 377 869 -581 587 876 1604 1928" />
  </vehicle>
  <vehicle id="147" depart="132.30" departLane="best" departSpeed="max">
    <route edges="-1943 -912 910 -718 726 915 1093 1655" />
  </vehicle>
  <vehicle id="148" depart="133.20" departLane="best" departSpeed="max">
    <route edges="-1941 -912 910 -718 726 917 1102 1407 1665" />
  </vehicle>
  <vehicle id="149" depart="134.10" departLane="best" departSpeed="max">
    <route edges="-1563 -182 -148 -124 112 -133 -91 89 132 151 204 262 583 1793 1802" />
  </vehicle>
  <vehicle id="150" depart="135.00" departLane="best" departSpeed="max">
    <route edges="-1393 -1091 -915 917 1102 1407 1657" />
  </vehicle>
  <vehicle id="151" depart="135.90" departLane="best" departSpeed="max">
    <route edges="-1802 -1793 -583 581 -869 -377 -3 17" />
  </vehicle>