<?xml version='1.0' encoding='UTF-8'?>
<additional><parkingArea id="pa_-194" lane="-194_0" startPos="2.00" endPos="16.00" roadsideCapacity="4" friendlyPos="true" /><parkingArea id="pa_-879" lane="-879_0" startPos="2.00" endPos="16.00" roadsideCapacity="4" friendlyPos="true" /><parkingArea id="pa_-1100" lane="-1100_0" startPos="2.00" endPos="16.00" roadsideCapacity="4" friendlyPos="true" /><parkingArea id="pa_153" lane="153_0" startPos="2.00" endPos="16.00" roadsideCapacity="4" friendlyPos="true" /><parkingArea id="pa_-80" lane="-80_0" startPos="2.00" endPos="16.00" roadsideCapacity="4" friendlyPos="true" /><parkingArea id="pa_-405" lane="-405_0" startPos="2.00" endPos="16.00" roadsideCapacity="4" friendlyPos="true" /><parkingArea id="pa_874" lane="874_0" startPos="2.00" endPos="16.00" roadsideCapacity="4" friendlyPos="true" /><parkingArea id="pa_-225" lane="-225_0" startPos="2.00" endPos="16.00" roadsideCapacity="4" friendlyPos="true" /><parkingArea id="pa_572" lane="572_0" startPos="2.00" endPos="16.00" roadsideCapacity="4" friendlyPos="true" /><parkingArea id="pa_-899" lane="-899_0" startPos="2.00" endPos="16.00" roadsideCapacity="4" friendlyPos="true" /><parkingArea id="pa_247" lane="247_0" startPos="2.00" endPos="16.00" roadsideCapacity="4" friendlyPos="true" /><parkingArea id="pa_405" lane="405_0" startPos="2.00" endPos="16.00" roadsideCapacity="4" friendlyPos="true" /><parkingArea id="pa_-1596" lane="-1596_0" startPos="2.00" endPos="16.00" roadsideCapacity="4" friendlyPos="true" /><parkingArea id="pa_1596" lane="1596_0" startPos="2.00" endPos="16.00" roadsideCapacity="4" friendlyPos="true" /><parkingArea id="pa_-885" lane="-885_0" startPos="2.00" endPos="16.00" roadsideCapacity="4" friendlyPos="true" /><parkingArea id="pa_-595" lane="-595_0" startPos="2.00" endPos="16.00" roadsideCapacity="4" friendlyPos="true" /><parkingArea id="pa_-1407" lane="-1407_0" startPos="2.00" endPos="16.00" roadsideCapacity="2" friendlyPos="true" /><parkingArea id="pa_385" lane="385_0" startPos="2.00" endPos="16.00" roadsideCapacity="2" friendlyPos="true" /><parkingArea id="pa_869" lane="869_0" startPos="2.00" endPos="16.00" roadsideCapacity="2" friendlyPos="true" /><parkingArea id="pa_104" lane="104_0" startPos="2.00" endPos="16.00" roadsideCapacity="2" friendlyPos="true" /><parkingArea id="pa_384" lane="384_0" startPos="2.00" endPos="16.00" roadsideCapacity="2" friendlyPos="true" /><parkingArea id="pa_-381" lane="-381_0" startPos="2.00" endPos="16.00" roadsideCapacity="2" friendlyPos="true" /><parkingArea id="pa_445" lane="445_0" startPos="2.00" endPos="16.00" roadsideCapacity="2" friendlyPos="true" /><parkingArea id="pa_-89" lane="-89_0" startPos="2.00" endPos="16.00" roadsideCapacity="2" friendlyPos="true" /><parkingArea id="pa_249" lane="249_0" startPos="2.00" endPos="16.00" roadsideCapacity="2" friendlyPos="true" /><parkingArea id="pa_-402" lane="-402_0" startPos="2.00" endPos="16.00" roadsideCapacity="2" friendlyPos="true" /><parkingArea id="pa_494" lane="494_0" startPos="2.00" endPos="16.00" roadsideCapacity="2" friendlyPos="true" /><parkingArea id="pa_-480" lane="-480_0" startPos="2.00" endPos="16.00" roadsideCapacity="2" friendlyPos="true" /><parkingArea id="pa_431" lane="431_0" startPos="2.00" endPos="16.00" roadsideCapacity="2" friendlyPos="true" /><parkingArea id="pa_-91" lane="-91_0" startPos="2.00" endPos="16.00" roadsideCapacity="2" friendlyPos="true" /><parkingArea id="pa_-467" lane="-467_0" startPos="2.00" endPos="16.00" roadsideCapacity="2" friendlyPos="true" /><parkingArea id="pa_-3" lane="-3_0" startPos="2.00" endPos="16.00" roadsideCapacity="2" friendlyPos="true" /><parkingArea id="pa_1091" lane="1091_0" startPos="2.00" endPos="16.00" roadsideCapacity="2" friendlyPos="true" /><parkingArea id="pa_-30" lane="-30_0" startPos="2.00" endPos="16.00" roadsideCapacity="2" friendlyPos="true" /><parkingArea id="pa_-124" lane="-124_0" startPos="2.00" endPos="16.00" roadsideCapacity="2" friendlyPos="true" /><parkingArea id="pa_-65" lane="-65_0" startPos="2.00" endPos="16.00" roadsideCapacity="2" friendlyPos="true" /><parkingArea id="pa_1610" lane="1610_0" startPos="2.00" endPos="16.00" roadsideCapacity="2" friendlyPos="true" /><parkingArea id="pa_-1588" lane="-1588_0" startPos="2.00" endPos="16.00" roadsideCapacity="2" friendlyPos="true" /><parkingArea id="pa_-435" lane="-435_0" startPos="2.00" endPos="16.00" roadsideCapacity="2" friendlyPos="true" /><parkingArea id="pa_372" lane="372_0" startPos="2.00" endPos="16.00" roadsideCapacity="2" friendlyPos="true" /><parkingArea id="pa_-1102" lane="-1102_0" startPos="2.00" endPos="16.00" roadsideCapacity="2" friendlyPos="true" /></additional>