<?xml version='1.0' encoding='UTF-8'?>
<routes xmlns:xsi="http://www.w3.org/2001/XMLSchema-instance" xsi:noNamespaceSchemaLocation="http://sumo.dlr.de/xsd/routes_file.xsd">
    <vehicle id="0" depart="0.00" departLane="best" departSpeed="max">
        <route edges="left0A0 A0A1 A1A2" />
    <stop parkingArea="pa_A1A2" duration="100000" /></vehicle>
    <vehicle id="2" depart="0.31" departLane="best" departSpeed="max">
        <route edges="left5A5 A5B5 B5C5 C5D5 D5E5 E5E4 E4E3 E3E2 E2E1 E1E0 E0F0" />
    <stop parkingArea="pa_E0F0" duration="100000" /></vehicle>
    <vehicle id="3" depart="0.46" departLane="best" departSpeed="max">
        <route edges="top0A5 A5B5 B5B4 B4A4 A4A5" />
    <stop parkingArea="pa_A4A5" duration="100000" /></vehicle>
    <vehicle id="7" depart="1.08" departLane="best" departSpeed="max">
        <route edges="left0A0 A0B0 B0C0 C0D0 D0D1 D1D2 D2D3" />
    <stop parkingArea="pa_D2D3" duration="100000" /></vehicle>
    <vehicle id="9" depart="1.39" departLane="best" departSpeed="max">
        <route edges="right2F2 F2E2 E2D2 D2C2 C2B2 B2A2 A2A1 A1A0 A0B0" />
    <stop parkingArea="pa_A0B0" duration="100000" /></vehicle>
    <vehicle id="10" depart="1.54" departLane="best" departSpeed="max">
        <route edges="right2F2 F2F1 F1E1 E1E2" />
    <stop parkingArea="pa_E1E2" duration="100000" /></vehicle>
    <vehicle id="12" depart="1.85" departLane="best" departSpeed="max">
        <route edges="top3D5 D5D4 D4D3 D3D2 D2C2 C2B2" />
    <stop parkingArea="pa_C2B2" duration="100000" /></vehicle>
    <vehicle id="14" depart="2.16" departLane="best" departSpeed="max">
        <route edges="right4F4 F4E4 E4D4 D4D3 D3E3" />
    <stop parkingArea="pa_D3E3" duration="100000" /></vehicle>
    <vehicle id="15" depart="2.31" departLane="best" departSpeed="max">
        <route edges="right2F2 F2E2 E2E3" />
    <stop parkingArea="pa_E2E3" duration="100000" /></vehicle>
    <vehicle id="18" depart="2.77" departLane="best" departSpeed="max">
        <route edges="right3F3 F3E3 E3E4 E4D4 D4D3" />
    <stop parkingArea="pa_D4D3" duration="100000" /></vehicle>
    <vehicle id="19" depart="2.93" departLane="best" departSpeed="max">
        <route edges="right5F5 F5E5 E5D5 D5D4 D4D3 D3D2" />
    <stop parkingArea="pa_D3D2" duration="100000" /></vehicle>
    <vehicle id="20" depart="3.08" departLane="best" departSpeed="max">
        <route edges="left3A3 A3B3 B3B2 B2A2 A2A3" />
    <stop parkingArea="pa_A2A3" duration="100000" /></vehicle>
    <vehicle id="24" depart="3.70" departLane="best" departSpeed="max">
        <route edges="left0A0 A0B0 B0C0 C0C1 C1C2 C2D2" />
    <stop parkingArea="pa_C2D2" duration="100000" /></vehicle>
    <vehicle id="27" depart="4.16" departLane="best" departSpeed="max">
        <route edges="left0A0 A0B0 B0C0 C0D0 D0D1 D1D2 D2D3 D3D4 D4C4" />
    <stop parkingArea="pa_D4C4" duration="100000" /></vehicle>
    <vehicle id="30" depart="4.62" departLane="best" departSpeed="max">
        <route edges="top5F5 F5E5 E5D5 D5C5" />
    <stop parkingArea="pa_D5C5" duration="100000" /></vehicle>
    <vehicle id="31" depart="4.77" departLane="best" departSpeed="max">
        <route edges="bottom2C0 C0D0 D0E0 E0E1 E1D1" />
    <stop parkingArea="pa_E1D1" duration="100000" /></vehicle>
    <vehicle id="32" depart="4.93" departLane="best" departSpeed="max">
        <route edges="right4F4 F4E4 E4D4" />
    <stop parkingArea="pa_E4D4" duration="100000" /></vehicle>
    <vehicle id="36" depart="5.54" departLane="best" departSpeed="max">
        <route edges="right5F5 F5F4 F4F3 F3F2 F2F1 F1E1 E1D1 D1C1 C1C2" />
    <stop parkingArea="pa_C1C2" duration="100000" /></vehicle>
    <vehicle id="37" depart="5.70" departLane="best" departSpeed="max">
        <route edges="left1A1 A1B1 B1C1 C1C2 C2C3 C3C4" />
    <stop parkingArea="pa_C3C4" duration="100000" /></vehicle>
    <vehicle id="38" depart="5.85" departLane="best" departSpeed="max">
        <route edges="top1B5 B5C5 C5D5" />
    <stop parkingArea="pa_C5D5" duration="100000" /></vehicle>
    <vehicle id="40" depart="6.16" departLane="best" departSpeed="max">
        <route edges="bottom2C0 C0C1 C1C2 C2C3 C3C4 C4C5 C5B5 B5B4" />
    <stop parkingArea="pa_B5B4" duration="100000" /></vehicle>
    <vehicle id="41" depart="6.31" departLane="best" departSpeed="max">
        <route edges="bottom3D0 D0D1 D1D2 D2D3 D3E3 E3F3 F3F4" />
    <stop parkingArea="pa_F3F4" duration="100000" /></vehicle>
    <vehicle id="43" depart="6.62" departLane="best" departSpeed="max">
        <route edges="top5F5 F5F4 F4F3 F3F2 F2F1 F1E1 E1D1 D1D2" />
    <stop parkingArea="pa_D1D2" duration="100000" /></vehicle>
    <vehicle id="46" depart="7.08" departLane="best" departSpeed="max">
        <route edges="right1F1 F1E1 E1D1 D1D2 D2D3 D3D4 D4C4 C4C3" />
    <stop parkingArea="pa_C4C3" duration="100000" /></vehicle>
    <vehicle id="48" depart="7.39" departLane="best" departSpeed="max">
        <route edges="top5F5 F5F4 F4F3 F3F2 F2E2 E2D2 D2C2" />
    <stop parkingArea="pa_D2C2" duration="100000" /></vehicle>
    <vehicle id="49" depart="7.55" departLane="best" departSpeed="max">
        <route edges="top4E5 E5E4 E4E3 E3F3 F3F2 F2E2" />
    <stop parkingArea="pa_F2E2" duration="100000" /></vehicle>
    <vehicle id="51" depart="7.85" departLane="best" departSpeed="max">
        <route edges="left2A2 A2B2 B2C2 C2D2 D2D1" />
    <stop parkingArea="pa_D2D1" duration="100000" /></vehicle>
    <vehicle id="55" depart="8.47" departLane="best" departSpeed="max">
        <route edges="right5F5 F5E5 E5D5 D5C5 C5C4 C4B4 B4B5 B5C5" />
    <stop parkingArea="pa_B5C5" duration="100000" /></vehicle>
    <vehicle id="57" depart="8.78" departLane="best" departSpeed="max">
        <route edges="top1B5 B5B4 B4B3 B3B2 B2C2 C2D2 D2E2 E2F2 F2F3" />
    <stop parkingArea="pa_F2F3" duration="100000" /></vehicle>
    <vehicle id="59" depart="9.09" departLane="best" departSpeed="max">
        <route edges="bottom4E0 E0D0 D0C0 C0B0 B0B1 B1C1" />
    <stop parkingArea="pa_B1C1" duration="100000" /></vehicle>
    <vehicle id="60" depart="9.24" departLane="best" departSpeed="max">
        <route edges="right0F0 F0E0 E0E1 E1E2 E2D2 D2D1" />
    <stop parkingArea="pa_D2D1" duration="100000" /></vehicle>
    <vehicle id="61" depart="9.39" departLane="best" departSpeed="max">
        <route edges="right1F1 F1E1 E1D1 D1D2 D2C2" />
    <stop parkingArea="pa_D2C2" duration="100000" /></vehicle>
    <vehicle id="64" depart="9.86" departLane="best" departSpeed="max">
        <route edges="top0A5 A5B5 B5C5 C5D5 D5E5 E5F5 F5F4 F4F3 F3F2 F2F1 F1F0 F0bottom5" />
    </vehicle>
    <vehicle id="69" depart="10.63" departLane="best" departSpeed="max">
        <route edges="right0F0 F0E0 E0D0 D0D1 D1C1 C1B1 B1B0 B0C0" />
    <stop parkingArea="pa_B0C0" duration="100000" /></vehicle>
    <vehicle id="73" depart="11.24" departLane="best" departSpeed="max">
        <route edges="bottom1B0 B0B1 B1B2 B2C2 C2D2 D2E2 E2E3" />
    <stop parkingArea="pa_E2E3" duration="100000" /></vehicle>
    <vehicle id="75" depart="11.55" departLane="best" departSpeed="max">
        <route edges="top5F5 F5E5 E5D5 D5D4" />
    <stop parkingArea="pa_D5D4" duration="100000" /></vehicle>
    <vehicle id="82" depart="12.63" departLane="best" departSpeed="max">
        <route edges="right5F5 F5E5 E5D5 D5C5 C5C4 C4C3 C3B3 B3A3 A3A4" />
    <stop parkingArea="pa_A3A4" duration="100000" /></vehicle>
    <vehicle id="85" depart="13.09" departLane="best" departSpeed="max">
        <route edges="top2C5 C5D5 D5D4 D4D3 D3C3" />
    <stop parkingArea="pa_D3C3" duration="100000" /></vehicle>
    <vehicle id="87" depart="13.40" departLane="best" departSpeed="max">
        <route edges="right2F2 F2E2 E2D2 D2C2 C2C1 C1B1 B1B2 B2C2" />
    <stop parkingArea="pa_B2C2" duration="100000" /></vehicle>
    <vehicle id="90" depart="13.86" departLane="best" departSpeed="max">
        <route edges="left4A4 A4B4 B4B3 B3B2 B2B1 B1B0 B0C0 C0D0 D0E0 E0E1" />
    <stop parkingArea="pa_E0E1" duration="100000" /></vehicle>
    <vehicle id="91" depart="14.01" departLane="best" departSpeed="max">
        <route edges="top5F5 F5F4 F4E4 E4D4 D4C4 C4B4 B4A4 A4left4" />
    </vehicle>
    <vehicle id="93" depart="14.32" departLane="best" departSpeed="max">
        <route edges="right5F5 F5E5 E5D5 D5C5 C5B5 B5B4 B4C4" />
    <stop parkingArea="pa_B4C4" duration="100000" /></vehicle>
    <vehicle id="94" depart="14.48" departLane="1" departSpeed="max" departPos="stop">
        <route edges="B5A5 A5A4 A4B4 B4C4 C4C5 C5B5" />
    <stop parkingArea="pa_B5A5" duration="5" /><stop parkingArea="pa_C5B5" duration="100000" /></vehicle>
    <vehicle id="98" depart="15.09" departLane="best" departSpeed="max">
        <route edges="bottom1B0 B0A0 A0A1 A1A2 A2B2" />
    <stop parkingArea="pa_A2B2" duration="100000" /></vehicle>
    <vehicle id="99" depart="15.25" departLane="best" departSpeed="max">
        <route edges="top5F5 F5F4 F4F3 F3F2 F2F1 F1E1" />
    <stop parkingArea="pa_F1E1" duration="100000" /></vehicle>
    <vehicle id="100" depart="15.40" departLane="best" departSpeed="max">
        <route edges="top4E5 E5F5 F5F4" />
    <stop parkingArea="pa_F5F4" duration="100000" /></vehicle>
    <vehicle id="101" depart="15.55" departLane="best" departSpeed="max">
        <route edges="right4F4 F4E4 E4D4 D4C4 C4B4 B4B3 B3B2 B2B1" />
    <stop parkingArea="pa_B2B1" duration="100000" /></vehicle>
    <vehicle id="108" depart="16.63" departLane="best" departSpeed="max">
        <route edges="bottom2C0 C0C1 C1C2 C2D2 D2E2 E2E1" />
    <stop parkingArea="pa_E2E1" duration="100000" /></vehicle>
    <vehicle id="110" depart="16.94" departLane="best" departSpeed="max">
        <route edges="top4E5 E5E4 E4E3 E3D3 D3D2" />
    <stop parkingArea="pa_D3D2" duration="100000" /></vehicle>
    <vehicle id="111" depart="17.09" departLane="best" departSpeed="max">
        <route edges="bottom1B0 B0B1 B1B2 B2C2 C2D2 D2E2 E2E3 E3D3" />
    <stop parkingArea="pa_E3D3" duration="100000" /></vehicle>
    <vehicle id="116" depart="17.86" departLane="best" departSpeed="max">
        <route edges="bottom4E0 E0F0" />
    <stop parkingArea="pa_E0F0" duration="100000" /></vehicle>
    <vehicle id="117" depart="18.02" departLane="1" departSpeed="max" departPos="stop">
        <route edges="C5B5 B5A5 A5A4 A4A3 A3A2 A2A1 A1A0 A0B0 B0B1" />
    <stop parkingArea="pa_C5B5" duration="5" /><stop parkingArea="pa_B0B1" duration="100000" /></vehicle>
    <vehicle id="118" depart="18.17" departLane="best" departSpeed="max">
        <route edges="top0A5 A5A4 A4B4 B4C4" />
    <stop parkingArea="pa_B4C4" duration="100000" /></vehicle>
    <vehicle id="119" depart="18.33" departLane="best" departSpeed="max">
        <route edges="bottom4E0 E0E1 E1E2 E2E3 E3E4 E4D4 D4D3" />
    <stop parkingArea="pa_D4D3" duration="100000" /></vehicle>
    <vehicle id="121" depart="18.63" departLane="best" departSpeed="max">
        <route edges="bottom0A0 A0A1 A1A2 A2A3 A3B3 B3C3 C3D3 D3E3 E3F3 F3F4 F4F5 F5top5" />
    </vehicle>
    <vehicle id="124" depart="19.10" departLane="best" departSpeed="max">
        <route edges="left1A1 A1A2 A2B2 B2C2 C2C1 C1B1" />
    <stop parkingArea="pa_C1B1" duration="100000" /></vehicle>
    <vehicle id="130" depart="20.02" departLane="best" departSpeed="max">
        <route edges="top0A5 A5B5 B5C5 C5D5 D5E5 E5F5 F5F4 F4F3 F3E3" />
    <stop parkingArea="pa_F3E3" duration="100000" /></vehicle>
    <vehicle id="132" depart="20.33" departLane="best" departSpeed="max">
        <route edges="right3F3 F3E3 E3E2 E2E1 E1F1" />
    <stop parkingArea="pa_E1F1" duration="100000" /></vehicle>
    <vehicle id="134" depart="20.64" departLane="best" departSpeed="max">
        <route edges="left0A0 A0B0" />
    <stop parkingArea="pa_A0B0" duration="100000" /></vehicle>
    <vehicle id="135" depart="20.79" departLane="best" departSpeed="max">
        <route edges="right3F3 F3E3 E3D3 D3C3 C3C2 C2C1 C1B1" />
    <stop parkingArea="pa_C1B1" duration="100000" /></vehicle>
    <vehicle id="140" depart="21.56" departLane="best" departSpeed="max">
        <route edges="left4A4 A4B4 B4B3 B3B2" />
    <stop parkingArea="pa_B3B2" duration="100000" /></vehicle>
    <vehicle id="141" depart="21.71" departLane="best" departSpeed="max">
        <route edges="left0A0 A0A1 A1A2 A2A3 A3A4 A4A5 A5B5 B5C5" />
    <stop parkingArea="pa_B5C5" duration="100000" /></vehicle>
    <vehicle id="143" depart="22.02" departLane="best" departSpeed="max">
        <route edges="right4F4 F4E4 E4D4 D4C4 C4B4 B4B3 B3A3 A3A4 A4B4" />
    <stop parkingArea="pa_A4B4" duration="100000" /></vehicle>
    <vehicle id="146" depart="22.48" departLane="best" departSpeed="max">
        <route edges="left0A0 A0A1 A1A2 A2A3 A3A4 A4A5 A5B5 B5B4" />
    <stop parkingArea="pa_B5B4" duration="100000" /></vehicle>
    <vehicle id="147" depart="22.64" departLane="best" departSpeed="max">
        <route edges="left5A5 A5B5 B5C5 C5C4 C4C3 C3C2 C2D2 D2D3" />
    <stop parkingArea="pa_D2D3" duration="100000" /></vehicle>
    <vehicle id="150" depart="23.10" departLane="best" departSpeed="max">
        <route edges="top1B5 B5B4 B4B3 B3B2 B2C2 C2D2 D2D3" />
    <stop parkingArea="pa_D2D3" duration="100000" /></vehicle>
    <vehicle id="151" depart="23.25" departLane="best" departSpeed="max">
        <route edges="right3F3 F3E3 E3D3 D3D2" />
    <stop parkingArea="pa_D3D2" duration="100000" /></vehicle>
    <vehicle id="154" depart="23.72" departLane="best" departSpeed="max">
        <route edges="right1F1 F1F2 F2E2" />
    <stop parkingArea="pa_F2E2" duration="100000" /></vehicle>
    <vehicle id="155" depart="23.87" departLane="best" departSpeed="max">
        <route edges="top1B5 B5C5 C5C4 C4C3 C3B3 B3B4" />
    <stop parkingArea="pa_B3B4" duration="100000" /></vehicle>
    <vehicle id="157" depart="24.18" departLane="best" departSpeed="max">
        <route edges="right1F1 F1F2 F2F3 F3E3" />
    <stop parkingArea="pa_F3E3" duration="100000" /></vehicle>
    <vehicle id="161" depart="24.79" departLane="best" departSpeed="max">
        <route edges="right2F2 F2F3 F3E3" />
    <stop parkingArea="pa_F3E3" duration="100000" /></vehicle>
    <vehicle id="164" depart="25.26" departLane="best" departSpeed="max">
        <route edges="right2F2 F2F1" />
    <stop parkingArea="pa_F2F1" duration="100000" /></vehicle>
    <vehicle id="165" depart="25.41" departLane="best" departSpeed="max">
        <route edges="right2F2 F2E2 E2D2 D2C2 C2B2 B2B3 B3B4 B4B5 B5C5" />
    <stop parkingArea="pa_B5C5" duration="100000" /></vehicle>
    <vehicle id="166" depart="25.56" departLane="best" departSpeed="max">
        <route edges="right1F1 F1E1 E1D1 D1C1 C1B1 B1B2 B2B3 B3B4 B4B5 B5A5 A5left5" />
    </vehicle>
    <vehicle id="167" depart="25.72" departLane="best" departSpeed="max">
        <route edges="right5F5 F5F4 F4F3 F3F2 F2E2" />
    <stop parkingArea="pa_F2E2" duration="100000" /></vehicle>
    <vehicle id="170" depart="26.18" departLane="best" departSpeed="max">
        <route edges="right1F1 F1E1 E1D1 D1C1 C1B1 B1B2 B2B3 B3B4 B4A4" />
    <stop parkingArea="pa_B4A4" duration="100000" /></vehicle>
    <vehicle id="173" depart="26.64" departLane="best" departSpeed="max">
        <route edges="top4E5 E5E4 E4E3 E3E2 E2E1 E1E0 E0D0 D0C0 C0B0" />
    <stop parkingArea="pa_C0B0" duration="100000" /></vehicle>
    <vehicle id="174" depart="26.80" departLane="best" departSpeed="max">
        <route edges="left0A0 A0B0 B0C0 C0C1 C1C2 C2C3 C3C4" />
    <stop parkingArea="pa_C3C4" duration="100000" /></vehicle>
    <vehicle id="175" depart="26.95" departLane="best" departSpeed="max">
        <route edges="top5F5 F5F4 F4F3 F3F2 F2E2 E2D2 D2D1" />
    <stop parkingArea="pa_D2D1" duration="100000" /></vehicle>
    <vehicle id="176" depart="27.10" departLane="best" departSpeed="max">
        <route edges="top3D5 D5D4 D4D3 D3D2 D2D1 D1D0 D0C0 C0B0 B0A0" />
    <stop parkingArea="pa_B0A0" duration="100000" /></vehicle>
    <vehicle id="177" depart="27.26" departLane="best" departSpeed="max">
        <route edges="top4E5 E5E4 E4E3 E3E2 E2D2 D2C2 C2B2 B2B3" />
    <stop parkingArea="pa_B2B3" duration="100000" /></vehicle>
    <vehicle id="178" depart="27.41" departLane="best" departSpeed="max">
        <route edges="top4E5 E5E4 E4D4 D4C4 C4B4 B4B5 B5C5" />
    <stop parkingArea="pa_B5C5" duration="100000" /></vehicle>
    <vehicle id="180" depart="27.72" departLane="best" departSpeed="max">
        <route edges="left4A4 A4A3 A3A2 A2A1 A1B1 B1C1 C1C2" />
    <stop parkingArea="pa_C1C2" duration="100000" /></vehicle>
    <vehicle id="181" depart="27.87" departLane="best" departSpeed="max">
        <route edges="bottom4E0 E0D0 D0D1 D1D2" />
    <stop parkingArea="pa_D1D2" duration="100000" /></vehicle>
    <vehicle id="185" depart="28.49" departLane="best" departSpeed="max">
        <route edges="bottom1B0 B0B1 B1B2 B2C2 C2D2 D2E2 E2E1" />
    <stop parkingArea="pa_E2E1" duration="100000" /></vehicle>
    <vehicle id="186" depart="28.64" departLane="best" departSpeed="max">
        <route edges="left5A5 A5A4 A4A3 A3A2 A2A1 A1A0 A0B0 B0C0 C0D0 D0E0 E0E1" />
    <stop parkingArea="pa_E0E1" duration="100000" /></vehicle>
    <vehicle id="188" depart="28.95" departLane="best" departSpeed="max">
        <route edges="left1A1 A1B1 B1C1 C1C2 C2B2" />
    <stop parkingArea="pa_C2B2" duration="100000" /></vehicle>
    <vehicle id="190" depart="29.26" departLane="best" departSpeed="max">
        <route edges="left4A4 A4B4 B4C4 C4C3 C3C2 C2C1 C1B1" />
    <stop parkingArea="pa_C1B1" duration="100000" /></vehicle>
    <vehicle id="194" depart="29.88" departLane="best" departSpeed="max">
        <route edges="top3D5 D5D4 D4D3 D3D2 D2D1 D1D0 D0E0 E0F0" />
    <stop parkingArea="pa_E0F0" duration="100000" /></vehicle>
    <vehicle id="195" depart="30.03" departLane="best" departSpeed="max">
        <route edges="top1B5 B5B4 B4C4 C4D4 D4D3" />
    <stop parkingArea="pa_D4D3" duration="100000" /></vehicle>
    <vehicle id="197" depart="30.34" departLane="1" departSpeed="max" departPos="stop">
        <route edges="A0B0 B0C0 C0D0" />
    <stop parkingArea="pa_A0B0" duration="5" /><stop parkingArea="pa_C0D0" duration="100000" /></vehicle>
    <vehicle id="199" depart="30.65" departLane="best" departSpeed="max">
        <route edges="left1A1 A1B1 B1C1 C1C2 C2C3 C3C4 C4C5 C5top2" />
    </vehicle>
    <vehicle id="202" depart="31.11" departLane="best" departSpeed="max">
        <route edges="right1F1 F1E1 E1D1 D1D2 D2C2 C2B2 B2B1" />
    <stop parkingArea="pa_B2B1" duration="100000" /></vehicle>
    <vehicle id="204" depart="31.42" departLane="best" departSpeed="max">
        <route edges="bottom5F0 F0F1 F1F2 F2E2 E2D2 D2C2 C2B2" />
    <stop parkingArea="pa_C2B2" duration="100000" /></vehicle>
    <vehicle id="205" depart="31.57" departLane="best" departSpeed="max">
        <route edges="right3F3 F3E3 E3D3" />
    <stop parkingArea="pa_E3D3" duration="100000" /></vehicle>
    <vehicle id="206" depart="31.72" departLane="best" departSpeed="max">
        <route edges="left1A1 A1B1 B1B2 B2B3 B3C3" />
    <stop parkingArea="pa_B3C3" duration="100000" /></vehicle>
    <vehicle id="209" depart="32.19" departLane="best" departSpeed="max">
        <route edges="right4F4 F4E4 E4D4 D4C4 C4B4 B4A4 A4A3 A3B3" />
    <stop parkingArea="pa_A3B3" duration="100000" /></vehicle>
    <vehicle id="213" depart="32.80" departLane="best" departSpeed="max">
        <route edges="left1A1 A1A0 A0B0" />
    <stop parkingArea="pa_A0B0" duration="100000" /></vehicle>
    <vehicle id="214" depart="32.96" departLane="best" departSpeed="max">
        <route edges="left5A5 A5B5 B5C5 C5D5 D5E5 E5E4 E4E3 E3F3" />
    <stop parkingArea="pa_E3F3" duration="100000" /></vehicle>
    <vehicle id="217" depart="33.42" departLane="best" departSpeed="max">
        <route edges="bottom0A0 A0A1 A1A2 A2B2" />
    <stop parkingArea="pa_A2B2" duration="100000" /></vehicle>
    <vehicle id="222" depart="34.19" departLane="best" departSpeed="max">
        <route edges="top0A5 A5B5 B5C5 C5D5 D5D4 D4C4" />
    <stop parkingArea="pa_D4C4" duration="100000" /></vehicle>
    <vehicle id="223" depart="34.34" departLane="best" departSpeed="max">
        <route edges="left4A4 A4B4 B4C4 C4D4 D4D3 D3D2 D2D1 D1D0" />
    <stop parkingArea="pa_D1D0" duration="100000" /></vehicle>
    <vehicle id="224" depart="34.50" departLane="best" departSpeed="max">
        <route edges="right3F3 F3F2 F2E2 E2D2 D2D3" />
    <stop parkingArea="pa_D2D3" duration="100000" /></vehicle>
    <vehicle id="225" depart="34.65" departLane="best" departSpeed="max">
        <route edges="top0A5 A5B5 B5C5 C5D5 D5E5 E5E4 E4E3 E3D3" />
    <stop parkingArea="pa_E3D3" duration="100000" /></vehicle>
    <vehicle id="228" depart="35.11" departLane="best" departSpeed="max">
        <route edges="right0F0 F0E0 E0D0 D0D1 D1E1" />
    <stop parkingArea="pa_D1E1" duration="100000" /></vehicle>
    <vehicle id="229" depart="35.27" departLane="best" departSpeed="max">
        <route edges="bottom5F0 F0E0 E0D0 D0C0 C0B0" />
    <stop parkingArea="pa_C0B0" duration="100000" /></vehicle>
    <vehicle id="232" depart="35.73" departLane="best" departSpeed="max">
        <route edges="bottom1B0 B0A0 A0A1 A1B1 B1B0" />
    <stop parkingArea="pa_B1B0" duration="100000" /></vehicle>
    <vehicle id="234" depart="36.04" departLane="best" departSpeed="max">
        <route edges="left3A3 A3A2" />
    <stop parkingArea="pa_A3A2" duration="100000" /></vehicle>
    <vehicle id="238" depart="36.65" departLane="best" departSpeed="max">
        <route edges="bottom3D0 D0E0 E0E1 E1E2" />
    <stop parkingArea="pa_E1E2" duration="100000" /></vehicle>
    <vehicle id="239" depart="36.81" departLane="best" departSpeed="max">
        <route edges="right4F4 F4F3 F3E3 E3E4" />
    <stop parkingArea="pa_E3E4" duration="100000" /></vehicle>
    <vehicle id="244" depart="37.58" departLane="best" departSpeed="max">
        <route edges="bottom1B0 B0B1 B1B2 B2B3 B3C3 C3D3 D3E3" />
    <stop parkingArea="pa_D3E3" duration="100000" /></vehicle>
    <vehicle id="250" depart="38.50" departLane="best" departSpeed="max">
        <route edges="bottom5F0 F0E0 E0D0 D0C0 C0B0 B0A0 A0A1 A1B1" />
    <stop parkingArea="pa_A1B1" duration="100000" /></vehicle>
    <vehicle id="256" depart="39.42" departLane="best" departSpeed="max">
        <route edges="right0F0 F0E0 E0D0 D0D1 D1D2 D2D3 D3C3 C3B3" />
    <stop parkingArea="pa_C3B3" duration="100000" /></vehicle>
    <vehicle id="257" depart="39.58" departLane="best" departSpeed="max">
        <route edges="left5A5 A5B5 B5C5 C5D5 D5E5 E5F5 F5F4 F4F3 F3F2 F2F1 F1F0 F0bottom5" />
    </vehicle>
    <vehicle id="260" depart="40.04" departLane="best" departSpeed="max">
        <route edges="top5F5 F5F4 F4F3 F3F2 F2E2 E2D2 D2C2 C2C3" />
    <stop parkingArea="pa_C2C3" duration="100000" /></vehicle>
    <vehicle id="261" depart="40.19" departLane="best" departSpeed="max">
        <route edges="left0A0 A0B0 B0C0 C0D0 D0E0 E0E1 E1E2 E2E3 E3E4 E4D4" />
    <stop parkingArea="pa_E4D4" duration="100000" /></vehicle>
    <vehicle id="262" depart="40.35" departLane="best" departSpeed="max">
        <route edges="left0A0 A0A1 A1A2 A2A3 A3B3 B3C3 C3D3 D3E3 E3E2" />
    <stop parkingArea="pa_E3E2" duration="100000" /></vehicle>
    <vehicle id="263" depart="40.50" departLane="best" departSpeed="max">
        <route edges="top3D5 D5D4 D4D3 D3C3 C3B3 B3B2" />
    <stop parkingArea="pa_B3B2" duration="100000" /></vehicle>
    <vehicle id="266" depart="40.96" departLane="best" departSpeed="max">
        <route edges="bottom2C0 C0C1 C1C2 C2B2 B2B3 B3C3" />
    <stop parkingArea="pa_B3C3" duration="100000" /></vehicle>
    <vehicle id="267" depart="41.12" departLane="best" departSpeed="max">
        <route edges="left3A3 A3B3 B3C3 C3D3 D3E3 E3E4" />
    <stop parkingArea="pa_E3E4" duration="100000" /></vehicle>
    <vehicle id="269" depart="41.43" departLane="best" departSpeed="max">
        <route edges="left5A5 A5B5 B5B4 B4B3 B3B2 B2B1 B1B0 B0A0" />
    <stop parkingArea="pa_B0A0" duration="100000" /></vehicle>
    <vehicle id="273" depart="42.04" departLane="best" departSpeed="max">
        <route edges="top3D5 D5D4 D4D3 D3C3 C3C4" />
    <stop parkingArea="pa_C3C4" duration="100000" /></vehicle>
    <vehicle id="274" depart="42.20" departLane="best" departSpeed="max">
        <route edges="left3A3 A3B3" />
    <stop parkingArea="pa_A3B3" duration="100000" /></vehicle>
    <vehicle id="275" depart="42.35" departLane="best" departSpeed="max">
        <route edges="left2A2 A2B2 B2C2 C2D2 D2D3 D3D4 D4D5" />
    <stop parkingArea="pa_D4D5" duration="100000" /></vehicle>
    <vehicle id="277" depart="42.66" departLane="best" departSpeed="max">
        <route edges="right4F4 F4E4 E4D4 D4D3 D3E3" />
    <stop parkingArea="pa_D3E3" duration="100000" /></vehicle>
    <vehicle id="279" depart="42.97" departLane="best" departSpeed="max">
        <route edges="right1F1 F1E1 E1D1 D1D2 D2C2 C2C1" />
    <stop parkingArea="pa_C2C1" duration="100000" /></vehicle>
    <vehicle id="282" depart="43.43" departLane="best" departSpeed="max">
        <route edges="right4F4 F4F3 F3F2 F2F1 F1F0 F0E0" />
    <stop parkingArea="pa_F0E0" duration="100000" /></vehicle>
    <vehicle id="284" depart="43.74" departLane="best" departSpeed="max">
        <route edges="left0A0 A0B0 B0C0 C0D0 D0E0 E0F0 F0F1" />
    <stop parkingArea="pa_F0F1" duration="100000" /></vehicle>
    <vehicle id="285" depart="43.89" departLane="best" departSpeed="max">
        <route edges="left3A3 A3B3 B3C3 C3C4 C4D4" />
    <stop parkingArea="pa_C4D4" duration="100000" /></vehicle>
    <vehicle id="288" depart="44.35" departLane="best" departSpeed="max">
        <route edges="bottom1B0 B0C0 C0D0 D0E0" />
    <stop parkingArea="pa_D0E0" duration="100000" /></vehicle>
    <vehicle id="291" depart="44.81" departLane="best" departSpeed="max">
        <route edges="right3F3 F3E3 E3D3 D3C3 C3B3 B3B4 B4A4 A4A3" />
    <stop parkingArea="pa_A4A3" duration="100000" /></vehicle>
    <vehicle id="292" depart="44.97" departLane="best" departSpeed="max">
        <route edges="top0A5 A5A4 A4B4 B4B5" />
    <stop parkingArea="pa_B4B5" duration="100000" /></vehicle>
    <vehicle id="295" depart="45.43" departLane="best" departSpeed="max">
        <route edges="right4F4 F4E4 E4D4 D4C4 C4C3 C3C2 C2B2 B2B3" />
    <stop parkingArea="pa_B2B3" duration="100000" /></vehicle>
    <vehicle id="298" depart="45.89" departLane="best" departSpeed="max">
        <route edges="left3A3 A3B3 B3C3 C3C2 C2C1 C1C0 C0B0" />
    <stop parkingArea="pa_C0B0" duration="100000" /></vehicle>
    <vehicle id="302" depart="46.51" departLane="best" departSpeed="max">
        <route edges="left2A2 A2B2 B2C2 C2D2 D2D3 D3D4 D4D5 D5C5" />
    <stop parkingArea="pa_D5C5" duration="100000" /></vehicle>
    <vehicle id="305" depart="46.97" departLane="best" departSpeed="max">
        <route edges="left2A2 A2B2 B2C2 C2C1 C1C0" />
    <stop parkingArea="pa_C1C0" duration="100000" /></vehicle>
    <vehicle id="306" depart="47.12" departLane="best" departSpeed="max">
        <route edges="bottom3D0 D0C0" />
    <stop parkingArea="pa_D0C0" duration="100000" /></vehicle>
    <vehicle id="307" depart="47.28" departLane="best" departSpeed="max">
        <route edges="bottom0A0 A0A1 A1A2 A2A3 A3A4 A4B4 B4C4 C4C3" />
    <stop parkingArea="pa_C4C3" duration="100000" /></vehicle>
    <vehicle id="308" depart="47.43" departLane="best" departSpeed="max">
        <route edges="left5A5 A5B5 B5C5 C5C4 C4C3 C3C2 C2B2" />
    <stop parkingArea="pa_C2B2" duration="100000" /></vehicle>
    <vehicle id="309" depart="47.59" departLane="best" departSpeed="max">
        <route edges="left3A3 A3B3 B3B4 B4B5 B5top1" />
    </vehicle>
    <vehicle id="312" depart="48.05" departLane="best" departSpeed="max">
        <route edges="bottom1B0 B0B1 B1B2 B2B3 B3C3 C3D3 D3E3 E3E4" />
    <stop parkingArea="pa_E3E4" duration="100000" /></vehicle>
    <vehicle id="315" depart="48.51" departLane="best" departSpeed="max">
        <route edges="top4E5 E5E4 E4E3 E3E2 E2D2 D2C2" />
    <stop parkingArea="pa_D2C2" duration="100000" /></vehicle>
    <vehicle id="319" depart="49.13" departLane="best" departSpeed="max">
        <route edges="bottom1B0 B0B1 B1C1 C1C0 C0B0" />
    <stop parkingArea="pa_C0B0" duration="100000" /></vehicle>
    <vehicle id="320" depart="49.28" departLane="best" departSpeed="max">
        <route edges="top4E5 E5E4 E4E3 E3E2 E2D2 D2D3" />
    <stop parkingArea="pa_D2D3" duration="100000" /></vehicle>
    <vehicle id="321" depart="49.43" departLane="best" departSpeed="max">
        <route edges="left3A3 A3A2 A2A1 A1A0 A0B0 B0C0" />
    <stop parkingArea="pa_B0C0" duration="100000" /></vehicle>
    <vehicle id="322" depart="49.59" departLane="best" departSpeed="max">
        <route edges="right5F5 F5F4 F4F3 F3F2 F2F1 F1E1 E1D1 D1C1" />
    <stop parkingArea="pa_D1C1" duration="100000" /></vehicle>
    <vehicle id="323" depart="49.74" departLane="best" departSpeed="max">
        <route edges="right5F5 F5E5 E5D5 D5D4 D4D3 D3C3" />
    <stop parkingArea="pa_D3C3" duration="100000" /></vehicle>
    <vehicle id="326" depart="50.20" departLane="best" departSpeed="max">
        <route edges="top3D5 D5D4 D4D3 D3D2 D2D1 D1E1 E1E0 E0D0 D0D1" />
    <stop parkingArea="pa_D0D1" duration="100000" /></vehicle>
    <vehicle id="327" depart="50.36" departLane="best" departSpeed="max">
        <route edges="right3F3 F3E3 E3D3 D3D2 D2C2 C2C3 C3D3" />
    <stop parkingArea="pa_C3D3" duration="100000" /></vehicle>
    <vehicle id="330" depart="50.82" departLane="best" departSpeed="max">
        <route edges="bottom2C0 C0C1 C1B1" />
    <stop parkingArea="pa_C1B1" duration="100000" /></vehicle>
    <vehicle id="331" depart="50.97" departLane="best" departSpeed="max">
        <route edges="top5F5 F5F4 F4F3 F3F2 F2F1 F1F0 F0E0 E0D0 D0C0 C0B0 B0B1" />
    <stop parkingArea="pa_B0B1" duration="100000" /></vehicle>
    <vehicle id="332" depart="51.13" departLane="best" departSpeed="max">