<?xml version='1.0' encoding='UTF-8'?>
<additional><parkingArea id="pa_A0A1" lane="A0A1_1" startPos="2.00" endPos="97.20" friendlyPos="true" roadsideCapacity="68" /><parkingArea id="pa_A0B0" lane="A0B0_1" startPos="2.00" endPos="97.20" friendlyPos="true" roadsideCapacity="57" /><parkingArea id="pa_A1A0" lane="A1A0_1" startPos="2.00" endPos="97.20" friendlyPos="true" roadsideCapacity="50" /><parkingArea id="pa_A1A2" lane="A1A2_1" startPos="2.00" endPos="97.20" friendlyPos="true" roadsideCapacity="107" /><parkingArea id="pa_A1B1" lane="A1B1_1" startPos="2.00" endPos="97.20" friendlyPos="true" roadsideCapacity="65" /><parkingArea id="pa_A2A1" lane="A2A1_1" startPos="2.00" endPos="97.20" friendlyPos="true" roadsideCapacity="83" /><parkingArea id="pa_A2A3" lane="A2A3_1" startPos="2.00" endPos="97.20" friendlyPos="true" roadsideCapacity="86" /><parkingArea id="pa_A2B2" lane="A2B2_1" startPos="2.00" endPos="97.20" friendlyPos="true" roadsideCapacity="60" /><parkingArea id="pa_A3A2" lane="A3A2_1" startPos="2.00" endPos="97.20" friendlyPos="true" roadsideCapacity="90" /><parkingArea id="pa_A3A4" lane="A3A4_1" startPos="2.00" endPos="97.20" friendlyPos="true" roadsideCapacity="88" /><parkingArea id="pa_A3B3" lane="A3B3_1" startPos="2.00" endPos="97.20" friendlyPos="true" roadsideCapacity="71" /><parkingArea id="pa_A4A3" lane="A4A3_1" startPos="2.00" endPos="97.20" friendlyPos="true" roadsideCapacity="81" /><parkingArea id="pa_A4A5" lane="A4A5_1" startPos="2.00" endPos="97.20" friendlyPos="true" roadsideCapacity="68" /><parkingArea id="pa_A4B4" lane="A4B4_1" startPos="2.00" endPos="97.20" friendlyPos="true" roadsideCapacity="85" /><parkingArea id="pa_A5A4" lane="A5A4_1" startPos="2.00" endPos="97.20" friendlyPos="true" roadsideCapacity="58" /><parkingArea id="pa_A5B5" lane="A5B5_1" startPos="2.00" endPos="97.20" friendlyPos="true" roadsideCapacity="54" /><parkingArea id="pa_B0A0" lane="B0A0_1" startPos="2.00" endPos="97.20" friendlyPos="true" roadsideCapacity="56" /><parkingArea id="pa_B0B1" lane="B0B1_1" startPos="2.00" endPos="97.20" friendlyPos="true" roadsideCapacity="76" /><parkingArea id="pa_B0C0" lane="B0C0_1" startPos="2.00" endPos="97.20" friendlyPos="true" roadsideCapacity="77" /><parkingArea id="pa_B1A1" lane="B1A1_1" startPos="2.00" endPos="97.20" friendlyPos="true" roadsideCapacity="63" /><parkingArea id="pa_B1B0" lane="B1B0_1" startPos="2.00" endPos="97.20" friendlyPos="true" roadsideCapacity="64" /><parkingArea id="pa_B1B2" lane="B1B2_1" startPos="2.00" endPos="97.20" friendlyPos="true" roadsideCapacity="89" /><parkingArea id="pa_B1C1" lane="B1C1_1" startPos="2.00" endPos="97.20" friendlyPos="true" roadsideCapacity="105" /><parkingArea id="pa_B2A2" lane="B2A2_1" startPos="2.00" endPos="97.20" friendlyPos="true" roadsideCapacity="74" /><parkingArea id="pa_B2B1" lane="B2B1_1" startPos="2.00" endPos="97.20" friendlyPos="true" roadsideCapacity="99" /><parkingArea id="pa_B2B3" lane="B2B3_1" startPos="2.00" endPos="97.20" friendlyPos="true" roadsideCapacity="128" /><parkingArea id="pa_B2C2" lane="B2C2_1" startPos="2.00" endPos="97.20" friendlyPos="true" roadsideCapacity="121" /><parkingArea id="pa_B3A3" lane="B3A3_1" startPos="2.00" endPos="97.20" friendlyPos="true" roadsideCapacity="67" /><parkingArea id="pa_B3B2" lane="B3B2_1" startPos="2.00" endPos="97.20" friendlyPos="true" roadsideCapacity="121" /><parkingArea id="pa_B3B4" lane="B3B4_1" startPos="2.00" endPos="97.20" friendlyPos="true" roadsideCapacity="108" /><parkingArea id="pa_B3C3" lane="B3C3_1" startPos="2.00" endPos="97.20" friendlyPos="true" roadsideCapacity="125" /><parkingArea id="pa_B4A4" lane="B4A4_1" startPos="2.00" endPos="97.20" friendlyPos="true" roadsideCapacity="71" /><parkingArea id="pa_B4B3" lane="B4B3_1" startPos="2.00" endPos="97.20" friendlyPos="true" roadsideCapacity="93" /><parkingArea id="pa_B4B5" lane="B4B5_1" startPos="2.00" endPos="97.20" friendlyPos="true" roadsideCapacity="59" /><parkingArea id="pa_B4C4" lane="B4C4_1" startPos="2.00" endPos="97.20" friendlyPos="true" roadsideCapacity="84" /><parkingArea id="pa_B5A5" lane="B5A5_1" startPos="2.00" endPos="97.20" friendlyPos="true" roadsideCapacity="62" /><parkingArea id="pa_B5B4" lane="B5B4_1" startPos="2.00" endPos="97.20" friendlyPos="true" roadsideCapacity="63" /><parkingArea id="pa_B5C5" lane="B5C5_1" startPos="2.00" endPos="97.20" friendlyPos="true" roadsideCapacity="86" /><parkingArea id="pa_C0B0" lane="C0B0_1" startPos="2.00" endPos="97.20" friendlyPos="true" roadsideCapacity="86" /><parkingArea id="pa_C0C1" lane="C0C1_1" startPos="2.00" endPos="97.20" friendlyPos="true" roadsideCapacity="81" /><parkingArea id="pa_C0D0" lane="C0D0_1" startPos="2.00" endPos="97.20" friendlyPos="true" roadsideCapacity="87" /><parkingArea id="pa_C1B1" lane="C1B1_1" startPos="2.00" endPos="97.20" friendlyPos="true" roadsideCapacity="108" /><parkingArea id="pa_C1C0" lane="C1C0_1" startPos="2.00" endPos="97.20" friendlyPos="true" roadsideCapacity="73" /><parkingArea id="pa_C1C2" lane="C1C2_1" startPos="2.00" endPos="97.20" friendlyPos="true" roadsideCapacity="134" /><parkingArea id="pa_C1D1" lane="C1D1_1" startPos="2.00" endPos="97.20" friendlyPos="true" roadsideCapacity="128" /><parkingArea id="pa_C2B2" lane="C2B2_1" startPos="2.00" endPos="97.20" friendlyPos="true" roadsideCapacity="117" /><parkingArea id="pa_C2C1" lane="C2C1_1" startPos="2.00" endPos="97.20" friendlyPos="true" roadsideCapacity="122" /><parkingArea id="pa_C2C3" lane="C2C3_1" startPos="2.00" endPos="97.20" friendlyPos="true" roadsideCapacity="138" /><parkingArea id="pa_C2D2" lane="C2D2_1" startPos="2.00" endPos="97.20" friendlyPos="true" roadsideCapacity="147" /><parkingArea id="pa_C3B3" lane="C3B3_1" startPos="2.00" endPos="97.20" friendlyPos="true" roadsideCapacity="119" /><parkingArea id="pa_C3C2" lane="C3C2_1" startPos="2.00" endPos="97.20" friendlyPos="true" roadsideCapacity="144" /><parkingArea id="pa_C3C4" lane="C3C4_1" startPos="2.00" endPos="97.20" friendlyPos="true" roadsideCapacity="114" /><parkingArea id="pa_C3D3" lane="C3D3_1" startPos="2.00" endPos="97.20" friendlyPos="true" roadsideCapacity="142" /><parkingArea id="pa_C4B4" lane="C4B4_1" startPos="2.00" endPos="97.20" friendlyPos="true" roadsideCapacity="99" /><parkingArea id="pa_C4C3" lane="C4C3_1" startPos="2.00" endPos="97.20" friendlyPos="true" roadsideCapacity="110" /><parkingArea id="pa_C4C5" lane="C4C5_1" startPos="2.00" endPos="97.20" friendlyPos="true" roadsideCapacity="72" /><parkingArea id="pa_C4D4" lane="C4D4_1" startPos="2.00" endPos="97.20" friendlyPos="true" roadsideCapacity="119" /><parkingArea id="pa_C5B5" lane="C5B5_1" startPos="2.00" endPos="97.20" friendlyPos="true" roadsideCapacity="107" /><parkingArea id="pa_C5C4" lane="C5C4_1" startPos="2.00" endPos="97.20" friendlyPos="true" roadsideCapacity="77" /><parkingArea id="pa_C5D5" lane="C5D5_1" startPos="2.00" endPos="97.20" friendlyPos="true" roadsideCapacity="80" /><parkingArea id="pa_D0C0" lane="D0C0_1" startPos="2.00" endPos="97.20" friendlyPos="true" roadsideCapacity="88" /><parkingArea id="pa_D0D1" lane="D0D1_1" startPos="2.00" endPos="97.20" friendlyPos="true" roadsideCapacity="85" /><parkingArea id="pa_D0E0" lane="D0E0_1" startPos="2.00" endPos="97.20" friendlyPos="true" roadsideCapacity="82" /><parkingArea id="pa_D1C1" lane="D1C1_1" startPos="2.00" endPos="97.20" friendlyPos="true" roadsideCapacity="127" /><parkingArea id="pa_D1D0" lane="D1D0_1" startPos="2.00" endPos="97.20" friendlyPos="true" roadsideCapacity="90" /><parkingArea id="pa_D1D2" lane="D1D2_1" startPos="2.00" endPos="97.20" friendlyPos="true" roadsideCapacity="100" /><parkingArea id="pa_D1E1" lane="D1E1_1" startPos="2.00" endPos="97.20" friendlyPos="true" roadsideCapacity="93" /><parkingArea id="pa_D2C2" lane="D2C2_1" startPos="2.00" endPos="97.20" friendlyPos="true" roadsideCapacity="130" /><parkingArea id="pa_D2D1" lane="D2D1_1" startPos="2.00" endPos="97.20" friendlyPos="true" roadsideCapacity="110" /><parkingArea id="pa_D2D3" lane="D2D3_1" startPos="2.00" endPos="97.20" friendlyPos="true" roadsideCapacity="137" /><parkingArea id="pa_D2E2" lane="D2E2_1" startPos="2.00" endPos="97.20" friendlyPos="true" roadsideCapacity="103" /><parkingArea id="pa_D3C3" lane="D3C3_1" startPos="2.00" endPos="97.20" friendlyPos="true" roadsideCapacity="148" /><parkingArea id="pa_D3D2" lane="D3D2_1" startPos="2.00" endPos="97.20" friendlyPos="true" roadsideCapacity="142" /><parkingArea id="pa_D3D4" lane="D3D4_1" startPos="2.00" endPos="97.20" friendlyPos="true" roadsideCapacity="114" /><parkingArea id="pa_D3E3" lane="D3E3_1" startPos="2.00" endPos="97.20" friendlyPos="true" roadsideCapacity="110" /><parkingArea id="pa_D4C4" lane="D4C4_1" startPos="2.00" endPos="97.20" friendlyPos="true" roadsideCapacity="115" /><parkingArea id="pa_D4D3" lane="D4D3_1" startPos="2.00" endPos="97.20" friendlyPos="true" roadsideCapacity="113" /><parkingArea id="pa_D4D5" lane="D4D5_1" startPos="2.00" endPos="97.20" friendlyPos="true" roadsideCapacity="71" /><parkingArea id="pa_D4E4" lane="D4E4_1" startPos="2.00" endPos="97.20" friendlyPos="true" roadsideCapacity="106" /><parkingArea id="pa_D5C5" lane="D5C5_1" startPos="2.00" endPos="97.20" friendlyPos="true" roadsideCapacity="114" /><parkingArea id="pa_D5D4" lane="D5D4_1" startPos="2.00" endPos="97.20" friendlyPos="true" roadsideCapacity="97" /><parkingArea id="pa_D5E5" lane="D5E5_1" startPos="2.00" endPos="97.20" friendlyPos="true" roadsideCapacity="85" /><parkingArea id="pa_E0D0" lane="E0D0_1" startPos="2.00" endPos="97.20" friendlyPos="true" roadsideCapacity="87" /><parkingArea id="pa_E0E1" lane="E0E1_1" startPos="2.00" endPos="97.20" friendlyPos="true" roadsideCapacity="50" /><parkingArea id="pa_E0F0" lane="E0F0_1" startPos="2.00" endPos="97.20" friendlyPos="true" roadsideCapacity="60" /><parkingArea id="pa_E1D1" lane="E1D1_1" startPos="2.00" endPos="97.20" friendlyPos="true" roadsideCapacity="105" /><parkingArea id="pa_E1E0" lane="E1E0_1" startPos="2.00" endPos="97.20" friendlyPos="true" roadsideCapacity="62" /><parkingArea id="pa_E1E2" lane="E1E2_1" startPos="2.00" endPos="97.20" friendlyPos="true" roadsideCapacity="115" /><parkingArea id="pa_E1F1" lane="E1F1_1" startPos="2.00" endPos="97.20" friendlyPos="true" roadsideCapacity="56" /><parkingArea id="pa_E2D2" lane="E2D2_1" startPos="2.00" endPos="97.20" friendlyPos="true" roadsideCapacity="100" /><parkingArea id="pa_E2E1" lane="E2E1_1" startPos="2.00" endPos="97.20" friendlyPos="true" roadsideCapacity="88" /><parkingArea id="pa_E2E3" lane="E2E3_1" startPos="2.00" endPos="97.20" friendlyPos="true" roadsideCapacity="102" /><parkingArea id="pa_E2F2" lane="E2F2_1" startPos="2.00" endPos="97.20" friendlyPos="true" roadsideCapacity="82" /><parkingArea id="pa_E3D3" lane="E3D3_1" startPos="2.00" endPos="97.20" friendlyPos="true" roadsideCapacity="117" /><parkingArea id="pa_E3E2" lane="E3E2_1" startPos="2.00" endPos="97.20" friendlyPos="true" roadsideCapacity="138" /><parkingArea id="pa_E3E4" lane="E3E4_1" startPos="2.00" endPos="97.20" friendlyPos="true" roadsideCapacity="116" /><parkingArea id="pa_E3F3" lane="E3F3_1" startPos="2.00" endPos="97.20" friendlyPos="true" roadsideCapacity="68" /><parkingArea id="pa_E4D4" lane="E4D4_1" startPos="2.00" endPos="97.20" friendlyPos="true" roadsideCapacity="101" /><parkingArea id="pa_E4E3" lane="E4E3_1" startPos="2.00" endPos="97.20" friendlyPos="true" roadsideCapacity="99" /><parkingArea id="pa_E4E5" lane="E4E5_1" startPos="2.00" endPos="97.20" friendlyPos="true" roadsideCapacity="69" /><parkingArea id="pa_E4F4" lane="E4F4_1" startPos="2.00" endPos="97.20" friendlyPos="true" roadsideCapacity="61" /><parkingArea id="pa_E5D5" lane="E5D5_1" startPos="2.00" endPos="97.20" friendlyPos="true" roadsideCapacity="103" /><parkingArea id="pa_E5E4" lane="E5E4_1" startPos="2.00" endPos="97.20" friendlyPos="true" roadsideCapacity="66" /><parkingArea id="pa_E5F5" lane="E5F5_1" startPos="2.00" endPos="97.20" friendlyPos="true" roadsideCapacity="57" /><parkingArea id="pa_F0E0" lane="F0E0_1" startPos="2.00" endPos="97.20" friendlyPos="true" roadsideCapacity="51" /><parkingArea id="pa_F0F1" lane="F0F1_1" startPos="2.00" endPos="97.20" friendlyPos="true" roadsideCapacity="45" /><parkingArea id="pa_F1E1" lane="F1E1_1" startPos="2.00" endPos="97.20" friendlyPos="true" roadsideCapacity="63" /><parkingArea id="pa_F1F0" lane="F1F0_1" startPos="2.00" endPos="97.20" friendlyPos="true" roadsideCapacity="58" /><parkingArea id="pa_F1F2" lane="F1F2_1" startPos="2.00" endPos="97.20" friendlyPos="true" roadsideCapacity="96" /><parkingArea id="pa_F2E2" lane="F2E2_1" startPos="2.00" endPos="97.20" friendlyPos="true" roadsideCapacity="90" /><parkingArea id="pa_F2F1" lane="F2F1_1" startPos="2.00" endPos="97.20" friendlyPos="true" roadsideCapacity="74" /><parkingArea id="pa_F2F3" lane="F2F3_1" startPos="2.00" endPos="97.20" friendlyPos="true" roadsideCapacity="99" /><parkingArea id="pa_F3E3" lane="F3E3_1" startPos="2.00" endPos="97.20" friendlyPos="true" roadsideCapacity="75" /><parkingArea id="pa_F3F2" lane="F3F2_1" startPos="2.00" endPos="97.20" friendlyPos="true" roadsideCapacity="99" /><parkingArea id="pa_F3F4" lane="F3F4_1" startPos="2.00" endPos="97.20" friendlyPos="true" roadsideCapacity="80" /><parkingArea id="pa_F4E4" lane="F4E4_1" startPos="2.00" endPos="97.20" friendlyPos="true" roadsideCapacity="54" /><parkingArea id="pa_F4F3" lane="F4F3_1" startPos="2.00" endPos="97.20" friendlyPos="true" roadsideCapacity="81" /><parkingArea id="pa_F4F5" lane="F4F5_1" startPos="2.00" endPos="97.20" friendlyPos="true" roadsideCapacity="60" /><parkingArea id="pa_F5E5" lane="F5E5_1" startPos="2.00" endPos="97.20" friendlyPos="true" roadsideCapacity="61" /><parkingArea id="pa_F5F4" lane="F5F4_1" startPos="2.00" endPos="97.20" friendlyPos="true" roadsideCapacity="63" /></additional>