<?xml version="1.0" encoding="UTF-8"?>

<!-- generated on 2026-07-08 00:55:59 by Eclipse SUMO netconvert Version 1.20.0
<configuration xmlns:xsi="http://www.w3.org/2001/XMLSchema-instance" xsi:noNamespaceSchemaLocation="http://sumo.dlr.de/xsd/netconvertConfiguration.xsd">

    <input>
        <node-files value="nodes.nod.xml"/>
        <edge-files value="edges.edg.xml"/>
        <connection-files value="connections.con.xml"/>
    </input>

    <output>
        <output-file value="../net.net.xml"/>
    </output>

    <junctions>
        <no-turnarounds value="true"/>
        <junctions.corner-detail value="0"/>
    </junctions>

</configuration>
-->

<net version="1.20" limitTurnSpeed="5.50" xmlns:xsi="http://www.w3.org/2001/XMLSchema-instance" xsi:noNamespaceSchemaLocation="http://sumo.dlr.de/xsd/net_file.xsd">

    <location netOffset="0.00,0.00" convBoundary="0.00,0.00,1000.00,0.00" origBoundary="0.00,0.00,1000.00,0.00" projParameter="!"/>

    <edge id=":B_0" function="internal">
        <lane id=":B_0_0" index="0" speed="13.89" length="8.00" shape="496.00,-1.60 504.00,-1.60"/>
    </edge>

    <edge id="E1" from="A" to="B" priority="-1">
        <lane id="E1_0" index="0" speed="13.89" length="496.00" shape="0.00,-4.80 496.00,-4.80"/>
        <lane id="E1_1" index="1" speed="13.89" length="496.00" shape="0.00,-1.60 496.00,-1.60"/>
    </edge>
    <edge id="E2" from="B" to="C" priority="-1">
        <lane id="E2_0" index="0" speed="13.89" length="496.00" shape="504.00,-1.60 1000.00,-1.60"/>
    </edge>

    <junction id="A" type="dead_end" x="0.00" y="0.00" incLanes="" intLanes="" shape="0.00,0.00 0.00,-6.40"/>
    <junction id="B" type="priority" x="500.00" y="0.00" incLanes="E1_0 E1_1" intLanes=":B_0_0" shape="504.00,0.00 504.00,-3.20 496.00,-6.40 496.00,0.00">
        <request index="0" response="0" foes="0" cont="0"/>
    </junction>
    <junction id="C" type="dead_end" x="1000.00" y="0.00" incLanes="E2_0" intLanes="" shape="1000.00,-3.20 1000.00,0.00"/>

    <connection from="E1" to="E2" fromLane="1" toLane="0" via=":B_0_0" dir="s" state="M"/>

    <connection from=":B_0" to="E2" fromLane="0" toLane="0" dir="s" state="M"/>

</net>
