<connections>
    <connection from="e0" to="e1" fromLane="0" toLane="0"/>
    <connection from="e0" to="da" fromLane="1" toLane="0"/>
</connections>
