<edges>
    <edge id="e0" from="A" to="J" numLanes="2" speed="10.00" priority="-1"/>
    <edge id="e1" from="J" to="K" numLanes="1" speed="10.00" priority="-1"/>
    <edge id="da" from="J" to="P" numLanes="1" speed="10.00" priority="-1"/>
</edges>
