<additional xmlns:xsi="http://www.w3.org/2001/XMLSchema-instance" xsi:noNamespaceSchemaLocation="http://sumo.dlr.de/xsd/additional_file.xsd">
    <parkingArea id="pa0" lane="e0_1" startPos="25.00" endPos="40.00" roadsideCapacity="1"/>
</additional>
