<?xml version="1.0" encoding="UTF-8"?>

<!-- generated on 2026-07-18 21:51:34 by Eclipse SUMO netconvert Version 1.20.0
<configuration xmlns:xsi="http://www.w3.org/2001/XMLSchema-instance" xsi:noNamespaceSchemaLocation="http://sumo.dlr.de/xsd/netconvertConfiguration.xsd">

    <input>
        <node-files value="nodes.nod.xml"/>
        <edge-files value="edges.edg.xml"/>
        <connection-files value="connections.con.xml"/>
    </input>

    <output>
        <output-file value="net.net.xml"/>
    </output>

    <junctions>
        <no-turnarounds value="true"/>
        <junctions.corner-detail value="0"/>
    </junctions>

</configuration>
-->

<net version="1.20" limitTurnSpeed="5.50" xmlns:xsi="http://www.w3.org/2001/XMLSchema-instance" xsi:noNamespaceSchemaLocation="http://sumo.dlr.de/xsd/net_file.xsd">

    <location netOffset="0.00,0.00" convBoundary="0.00,0.00,90.00,30.00" origBoundary="0.00,0.00,90.00,30.00" projParameter="!"/>

    <edge id=":J_0" function="internal">
        <lane id=":J_0_0" index="0" speed="10.00" length="11.77" shape="56.00,-4.80 59.50,-4.30 61.91,-3.20 64.16,-2.10 67.20,-1.60"/>
    </edge>
    <edge id=":J_1" function="internal">
        <lane id=":J_1_0" index="0" speed="6.51" length="9.03" shape="56.00,-1.60 58.45,-1.25 60.20,-0.20 61.25,1.55 61.60,4.00"/>
    </edge>

    <edge id="da" from="J" to="P" priority="-1">
        <lane id="da_0" index="0" speed="10.00" length="26.00" shape="61.60,4.00 61.60,30.00"/>
    </edge>
    <edge id="e0" from="A" to="J" priority="-1">
        <lane id="e0_0" index="0" speed="10.00" length="56.00" shape="0.00,-4.80 56.00,-4.80"/>
        <lane id="e0_1" index="1" speed="10.00" length="56.00" shape="0.00,-1.60 56.00,-1.60"/>
    </edge>
    <edge id="e1" from="J" to="K" priority="-1">
        <lane id="e1_0" index="0" speed="10.00" length="22.80" shape="67.20,-1.60 90.00,-1.60"/>
    </edge>

    <junction id="A" type="dead_end" x="0.00" y="0.00" incLanes="" intLanes="" shape="0.00,0.00 0.00,-6.40"/>
    <junction id="J" type="priority" x="60.00" y="0.00" incLanes="e0_0 e0_1" intLanes=":J_0_0 :J_1_0" shape="60.00,4.00 63.20,4.00 67.20,0.00 67.20,-3.20 56.00,-6.40 56.00,0.00">
        <request index="0" response="00" foes="00" cont="0"/>
        <request index="1" response="00" foes="00" cont="0"/>
    </junction>
    <junction id="K" type="dead_end" x="90.00" y="0.00" incLanes="e1_0" intLanes="" shape="90.00,-3.20 90.00,0.00"/>
    <junction id="P" type="dead_end" x="60.00" y="30.00" incLanes="da_0" intLanes="" shape="63.20,30.00 60.00,30.00"/>

    <connection from="e0" to="e1" fromLane="0" toLane="0" via=":J_0_0" dir="s" state="M"/>
    <connection from="e0" to="da" fromLane="1" toLane="0" via=":J_1_0" dir="l" state="M"/>

    <connection from=":J_0" to="e1" fromLane="0" toLane="0" dir="s" state="M"/>
    <connection from=":J_1" to="da" fromLane="0" toLane="0" dir="l" state="M"/>

</net>
