sumo_version=1.20.0
sumo_version_reported=Eclipse SUMO sumo Version 1.20.0
generated_utc=2026-07-18T21:53:14Z
command=sumo -c /home/user/SumoSharp/scenarios/72-parkstop-maxspeed/config.sumocfg --fcd-output /home/user/SumoSharp/scenarios/72-parkstop-maxspeed/golden.fcd.xml --fcd-output.acceleration --precision 6 --save-state.times 1 --save-state.files /home/user/SumoSharp/scenarios/72-parkstop-maxspeed/golden.state.xml --no-step-log true --tripinfo-output /home/user/SumoSharp/scenarios/72-parkstop-maxspeed/golden.tripinfo.xml
state_time=1
# input file hashes (sha256):
input=net.net.xml sha256=e9b21e7ac1530aa7c37b2211d02a93a0d331daa7acfa66c9f80ffcdef6f803ac
input=rou.rou.xml sha256=e9ecc164c7635ee69c60e002ac2d138a64e1ce741e51be1038ca2c4596877839
input=config.sumocfg sha256=e1f791659af084f233c60e18462a7888805a659c23cd28380352a5a7e16e1e04
