<?xml version="1.0" encoding="UTF-8"?>
<edges xmlns:xsi="http://www.w3.org/2001/XMLSchema-instance" xsi:noNamespaceSchemaLocation="http://sumo.dlr.de/xsd/edges_file.xsd">
    <edge id="AJ" from="A" to="J" numLanes="1" speed="13.89"/>
    <edge id="JB" from="J" to="B" numLanes="1" speed="13.89"/>
</edges>
