<?xml version="1.0" encoding="UTF-8"?>
<nodes xmlns:xsi="http://www.w3.org/2001/XMLSchema-instance" xsi:noNamespaceSchemaLocation="http://sumo.dlr.de/xsd/nodes_file.xsd">
    <node id="A" x="0.0"   y="0.0" type="dead_end"/>
    <node id="J" x="200.0" y="0.0" type="priority"/>
    <node id="B" x="400.0" y="0.0" type="dead_end"/>
</nodes>
