<?xml version="1.0" encoding="UTF-8"?>
<routes xmlns:xsi="http://www.w3.org/2001/XMLSchema-instance" xsi:noNamespaceSchemaLocation="http://sumo.dlr.de/xsd/routes_file.xsd">
    <vType id="car"  vClass="passenger" sigma="0"/>
    <vType id="slow" vClass="passenger" sigma="0" maxSpeed="3"/>
    <route id="leadr" edges="JB"/>
    <route id="follr" edges="AJ JB"/>
    <vehicle id="lead" type="slow" route="leadr" depart="0" departPos="5"   departSpeed="3"/>
    <vehicle id="foll" type="car"  route="follr" depart="0" departPos="175" departSpeed="13.89"/>
</routes>
