<edges>
  <edge id="E0" from="A" to="B" numLanes="1" speed="13.89"/>
</edges>
