<?xml version="1.0" encoding="UTF-8"?>

<!-- generated on 2026-07-09 06:09:14 by Eclipse SUMO netconvert Version 1.20.0
<configuration xmlns:xsi="http://www.w3.org/2001/XMLSchema-instance" xsi:noNamespaceSchemaLocation="http://sumo.dlr.de/xsd/netconvertConfiguration.xsd">

    <input>
        <node-files value="scenarios/42-ballistic-follow/nodes.nod.xml"/>
        <edge-files value="scenarios/42-ballistic-follow/edges.edg.xml"/>
    </input>

    <output>
        <output-file value="scenarios/42-ballistic-follow/net.net.xml"/>
    </output>

</configuration>
-->

<net version="1.20" junctionCornerDetail="5" limitTurnSpeed="5.50" xmlns:xsi="http://www.w3.org/2001/XMLSchema-instance" xsi:noNamespaceSchemaLocation="http://sumo.dlr.de/xsd/net_file.xsd">

    <location netOffset="0.00,0.00" convBoundary="0.00,0.00,500.00,0.00" origBoundary="0.00,0.00,500.00,0.00" projParameter="!"/>

    <edge id="E0" from="A" to="B" priority="-1">
        <lane id="E0_0" index="0" speed="13.89" length="500.00" shape="0.00,-1.60 500.00,-1.60"/>
    </edge>

    <junction id="A" type="dead_end" x="0.00" y="0.00" incLanes="" intLanes="" shape="0.00,0.00 0.00,-3.20"/>
    <junction id="B" type="dead_end" x="500.00" y="0.00" incLanes="E0_0" intLanes="" shape="500.00,-3.20 500.00,0.00"/>

</net>
