<?xml version="1.0" encoding="UTF-8"?>

<!-- generated on 2026-07-07 09:57:59 by Eclipse SUMO netconvert Version 1.20.0
<configuration xmlns:xsi="http://www.w3.org/2001/XMLSchema-instance" xsi:noNamespaceSchemaLocation="http://sumo.dlr.de/xsd/netconvertConfiguration.xsd">

    <input>
        <node-files value="nodes.nod.xml"/>
        <edge-files value="edges.edg.xml"/>
    </input>

    <output>
        <output-file value="net.net.xml"/>
    </output>

    <junctions>
        <no-turnarounds value="true"/>
    </junctions>

</configuration>
-->

<net version="1.20" junctionCornerDetail="5" limitTurnSpeed="5.50" xmlns:xsi="http://www.w3.org/2001/XMLSchema-instance" xsi:noNamespaceSchemaLocation="http://sumo.dlr.de/xsd/net_file.xsd">

    <location netOffset="200.00,200.00" convBoundary="0.00,0.00,400.00,400.00" origBoundary="-200.00,-200.00,200.00,200.00" projParameter="!"/>

    <edge id=":J_0" function="internal">
        <lane id=":J_0_0" index="0" speed="6.51" length="9.03" shape="201.60,192.80 201.95,195.25 203.00,197.00 204.75,198.05 207.20,198.40"/>
    </edge>
    <edge id=":J_1" function="internal">
        <lane id=":J_1_0" index="0" speed="13.89" length="11.20" shape="201.60,192.80 201.60,204.00"/>
    </edge>
    <edge id=":J_2" function="internal">
        <lane id=":J_2_0" index="0" speed="13.89" length="11.20" shape="196.00,198.40 207.20,198.40"/>
    </edge>
    <edge id=":J_3" function="internal">
        <lane id=":J_3_0" index="0" speed="6.51" length="9.03" shape="196.00,198.40 198.45,198.75 200.20,199.80 201.25,201.55 201.60,204.00"/>
    </edge>

    <edge id="JE" from="J" to="E" priority="10">
        <lane id="JE_0" index="0" speed="13.89" length="192.80" shape="207.20,198.40 400.00,198.40"/>
    </edge>
    <edge id="JN" from="J" to="N" priority="1">
        <lane id="JN_0" index="0" speed="13.89" length="196.00" shape="201.60,204.00 201.60,400.00"/>
    </edge>
    <edge id="SJ" from="S" to="J" priority="1">
        <lane id="SJ_0" index="0" speed="13.89" length="192.80" shape="201.60,0.00 201.60,192.80"/>
    </edge>
    <edge id="WJ" from="W" to="J" priority="10">
        <lane id="WJ_0" index="0" speed="13.89" length="196.00" shape="0.00,198.40 196.00,198.40"/>
    </edge>

    <junction id="E" type="dead_end" x="400.00" y="200.00" incLanes="JE_0" intLanes="" shape="400.00,196.80 400.00,200.00"/>
    <junction id="J" type="priority" x="200.00" y="200.00" incLanes="SJ_0 WJ_0" intLanes=":J_0_0 :J_1_0 :J_2_0 :J_3_0" shape="200.00,204.00 203.20,204.00 203.64,201.78 204.20,201.00 204.98,200.44 205.98,200.11 207.20,200.00 207.20,196.80 204.98,196.36 204.20,195.80 203.64,195.02 203.31,194.02 203.20,192.80 200.00,192.80 199.56,195.02 199.00,195.80 198.22,196.36 197.22,196.69 196.00,196.80 196.00,200.00 198.22,200.44 199.00,201.00 199.56,201.78 199.89,202.78">
        <request index="0" response="0100" foes="0100" cont="0"/>
        <request index="1" response="1100" foes="1100" cont="0"/>
        <request index="2" response="0000" foes="0011" cont="0"/>
        <request index="3" response="0000" foes="0010" cont="0"/>
    </junction>
    <junction id="N" type="dead_end" x="200.00" y="400.00" incLanes="JN_0" intLanes="" shape="203.20,400.00 200.00,400.00"/>
    <junction id="S" type="dead_end" x="200.00" y="0.00" incLanes="" intLanes="" shape="200.00,0.00 203.20,0.00"/>
    <junction id="W" type="dead_end" x="0.00" y="200.00" incLanes="" intLanes="" shape="0.00,200.00 0.00,196.80"/>

    <connection from="SJ" to="JE" fromLane="0" toLane="0" via=":J_0_0" dir="r" state="m"/>
    <connection from="SJ" to="JN" fromLane="0" toLane="0" via=":J_1_0" dir="s" state="m"/>
    <connection from="WJ" to="JE" fromLane="0" toLane="0" via=":J_2_0" dir="s" state="M"/>
    <connection from="WJ" to="JN" fromLane="0" toLane="0" via=":J_3_0" dir="l" state="M"/>

    <connection from=":J_0" to="JE" fromLane="0" toLane="0" dir="r" state="M"/>
    <connection from=":J_1" to="JN" fromLane="0" toLane="0" dir="s" state="M"/>
    <connection from=":J_2" to="JE" fromLane="0" toLane="0" dir="s" state="M"/>
    <connection from=":J_3" to="JN" fromLane="0" toLane="0" dir="l" state="M"/>

</net>
