<edges>
  <edge id="NC" from="N" to="C" numLanes="1" speed="13.89"/>
  <edge id="SC" from="S" to="C" numLanes="1" speed="13.89"/>
  <edge id="EC" from="E" to="C" numLanes="1" speed="13.89"/>
  <edge id="WC" from="W" to="C" numLanes="1" speed="13.89"/>
  <edge id="CN" from="C" to="N" numLanes="1" speed="13.89"/>
  <edge id="CS" from="C" to="S" numLanes="1" speed="13.89"/>
  <edge id="CE" from="C" to="E" numLanes="1" speed="13.89"/>
  <edge id="CW" from="C" to="W" numLanes="1" speed="13.89"/>
</edges>
