sumo_version=1.20.0
sumo_version_reported=Eclipse SUMO sumo Version 1.20.0
generated_utc=2026-07-21T19:34:00Z
command=sumo -c config.sumocfg --fcd-output golden.fcd.xml --fcd-output.acceleration --precision 6 --save-state.times 1 --save-state.files golden.state.xml --no-step-log true
state_time=1
# input file hashes (sha256):
input=net.net.xml sha256=eeed7da7d588c1be53557d7c963aa71fea8c6d97493f9412ce8742af5b399847
input=rou.rou.xml sha256=e0fda8f6204bdbe015bf1ecbe1d1197e66ec7c2ef71616a61a115dceba2eb2c1
input=config.sumocfg sha256=5fd8fe16b2db24e022c916ad70e6f84b073f0c303f9771ffe882bd14c074b3a5
input=pa.add.xml sha256=4dc1cd5d8cfc44ebbefb7c145c962a45ec3e18fe1beeb27ac5585ad12b124799
