<?xml version="1.0" encoding="UTF-8"?>

<!-- generated on 2026-07-17 13:41:22 by Eclipse SUMO netconvert Version 1.20.0
<configuration xmlns:xsi="http://www.w3.org/2001/XMLSchema-instance" xsi:noNamespaceSchemaLocation="http://sumo.dlr.de/xsd/netconvertConfiguration.xsd">

    <input>
        <node-files value="nodes.nod.xml"/>
        <edge-files value="edges.edg.xml"/>
    </input>

    <output>
        <output-file value="net.net.xml"/>
    </output>

    <junctions>
        <no-turnarounds value="true"/>
    </junctions>

</configuration>
-->

<net version="1.20" junctionCornerDetail="5" limitTurnSpeed="5.50" xmlns:xsi="http://www.w3.org/2001/XMLSchema-instance" xsi:noNamespaceSchemaLocation="http://sumo.dlr.de/xsd/net_file.xsd">

    <location netOffset="0.00,350.00" convBoundary="0.00,0.00,2100.00,350.00" origBoundary="0.00,-350.00,2100.00,0.00" projParameter="!"/>

    <edge id=":J_0" function="internal">
        <lane id=":J_0_0" index="0" speed="11.80" length="8.56" shape="597.49,348.40 599.92,348.15 601.47,347.41 602.88,346.22 604.88,344.63"/>
    </edge>
    <edge id=":J_1" function="internal">
        <lane id=":J_1_0" index="0" speed="9.45" length="8.58" shape="597.49,348.40 606.07,348.40"/>
    </edge>
    <edge id=":K_0" function="internal">
        <lane id=":K_0_0" index="0" speed="3.96" length="1.97" shape="1099.08,-1.31 1099.54,-1.55 1100.00,-1.63 1100.46,-1.55 1100.92,-1.31"/>
    </edge>
    <edge id=":M_0" function="internal">
        <lane id=":M_0_0" index="0" speed="11.80" length="8.56" shape="1595.12,344.63 1597.12,346.22 1598.53,347.41 1600.08,348.15 1602.51,348.40"/>
    </edge>
    <edge id=":M_1" function="internal">
        <lane id=":M_1_0" index="0" speed="9.45" length="8.58" shape="1593.93,348.40 1602.51,348.40"/>
    </edge>

    <edge id="e_dest" from="M" to="S" priority="-1">
        <lane id="e_dest_0" index="0" speed="13.89" length="497.49" shape="1602.51,348.40 2100.00,348.40"/>
    </edge>
    <edge id="e_det1" from="J" to="K" priority="-1">
        <lane id="e_det1_0" index="0" speed="13.89" length="603.25" shape="604.88,344.63 1099.08,-1.31"/>
    </edge>
    <edge id="e_det2" from="K" to="M" priority="-1">
        <lane id="e_det2_0" index="0" speed="13.89" length="603.25" shape="1100.92,-1.31 1595.12,344.63"/>
    </edge>
    <edge id="e_short" from="J" to="M" priority="-1">
        <lane id="e_short_0" index="0" speed="5.00" length="987.86" shape="606.07,348.40 1593.93,348.40"/>
    </edge>
    <edge id="e_src" from="O" to="J" priority="-1">
        <lane id="e_src_0" index="0" speed="13.89" length="597.49" shape="0.00,348.40 597.49,348.40"/>
    </edge>

    <junction id="J" type="priority" x="600.00" y="350.00" incLanes="e_src_0" intLanes=":J_0_0 :J_1_0" shape="606.07,350.00 606.07,346.80 605.37,346.70 605.25,346.58 605.28,346.42 605.47,346.20 605.80,345.94 603.97,343.32 601.77,345.16 600.98,345.85 600.13,346.37 599.04,346.69 597.49,346.80 597.49,350.00">
        <request index="0" response="00" foes="00" cont="0"/>
        <request index="1" response="00" foes="00" cont="0"/>
    </junction>
    <junction id="K" type="priority" x="1100.00" y="0.00" incLanes="e_det1_0" intLanes=":K_0_0" shape="1100.00,-0.00 1101.84,-2.62 1100.61,-3.19 1100.00,-3.26 1099.39,-3.19 1098.78,-2.98 1098.16,-2.62">
        <request index="0" response="0" foes="0" cont="0"/>
    </junction>
    <junction id="M" type="priority" x="1600.00" y="350.00" incLanes="e_det2_0 e_short_0" intLanes=":M_0_0 :M_1_0" shape="1602.51,350.00 1602.51,346.80 1599.87,346.37 1599.02,345.85 1598.23,345.16 1597.30,344.31 1596.03,343.32 1594.20,345.94 1594.72,346.42 1594.75,346.58 1594.63,346.70 1594.35,346.78 1593.93,346.80 1593.93,350.00">
        <request index="0" response="00" foes="10" cont="0"/>
        <request index="1" response="01" foes="01" cont="0"/>
    </junction>
    <junction id="O" type="dead_end" x="0.00" y="350.00" incLanes="" intLanes="" shape="0.00,350.00 0.00,346.80"/>
    <junction id="S" type="dead_end" x="2100.00" y="350.00" incLanes="e_dest_0" intLanes="" shape="2100.00,346.80 2100.00,350.00"/>

    <connection from="e_det1" to="e_det2" fromLane="0" toLane="0" via=":K_0_0" dir="l" state="M"/>
    <connection from="e_det2" to="e_dest" fromLane="0" toLane="0" via=":M_0_0" dir="s" state="M"/>
    <connection from="e_short" to="e_dest" fromLane="0" toLane="0" via=":M_1_0" dir="s" state="m"/>
    <connection from="e_src" to="e_det1" fromLane="0" toLane="0" via=":J_0_0" dir="R" state="M"/>
    <connection from="e_src" to="e_short" fromLane="0" toLane="0" via=":J_1_0" dir="s" state="M"/>

    <connection from=":J_0" to="e_det1" fromLane="0" toLane="0" dir="R" state="M"/>
    <connection from=":J_1" to="e_short" fromLane="0" toLane="0" dir="s" state="M"/>
    <connection from=":K_0" to="e_det2" fromLane="0" toLane="0" dir="l" state="M"/>
    <connection from=":M_0" to="e_dest" fromLane="0" toLane="0" dir="s" state="M"/>
    <connection from=":M_1" to="e_dest" fromLane="0" toLane="0" dir="s" state="M"/>

</net>
