<?xml version='1.0' encoding='UTF-8'?>
<!-- generated by deduce_pois.py; PedNetworkParser reads <poi> id/type/x/y; spec fields ride along as <param>. -->
<additional>
    <poi id="poi_venue_0" type="venue" x="450.0" y="738.4" color="255,80,80" layer="10">
        <param key="kind" value="venue"/>
        <param key="edge" value="e_n1_3_n2_3"/>
        <param key="weight" value="0.9619"/>
        <param key="capacity" value="200"/>
        <param key="land_use" value="commercial"/>
    </poi>
    <poi id="poi_venue_1" type="venue" x="450.0" y="761.6" color="255,80,80" layer="10">
        <param key="kind" value="venue"/>
        <param key="edge" value="e_n2_3_n1_3"/>
        <param key="weight" value="0.93"/>
        <param key="capacity" value="196"/>
        <param key="land_use" value="commercial"/>
    </poi>
    <poi id="poi_venue_2" type="venue" x="648.4" y="761.6" color="255,80,80" layer="10">
        <param key="kind" value="venue"/>
        <param key="edge" value="e_n3_3_n2_3"/>
        <param key="weight" value="0.8772"/>
        <param key="capacity" value="191"/>
        <param key="land_use" value="commercial"/>
    </poi>
    <poi id="poi_venue_3" type="venue" x="754.2" y="498.32" color="255,80,80" layer="10">
        <param key="kind" value="venue"/>
        <param key="edge" value="e_n_zip1_n3_2"/>
        <param key="weight" value="0.8766"/>
        <param key="capacity" value="180"/>
        <param key="land_use" value="commercial"/>
    </poi>
    <poi id="poi_venue_4" type="venue" x="648.4" y="738.4" color="255,80,80" layer="10">
        <param key="kind" value="venue"/>
        <param key="edge" value="e_n2_3_n3_3"/>
        <param key="weight" value="0.8483"/>
        <param key="capacity" value="177"/>
        <param key="land_use" value="commercial"/>
    </poi>
    <poi id="poi_venue_5" type="venue" x="757.39" y="449.15" color="255,80,80" layer="10">
        <param key="kind" value="venue"/>
        <param key="edge" value="e_n3_2_n3_1"/>
        <param key="weight" value="0.86"/>
        <param key="capacity" value="175"/>
        <param key="land_use" value="commercial"/>
    </poi>
    <poi id="poi_venue_6" type="venue" x="757.4" y="646.05" color="255,80,80" layer="10">
        <param key="kind" value="venue"/>
        <param key="edge" value="e_n3_2_n3_3"/>
        <param key="weight" value="0.7846"/>
        <param key="capacity" value="152"/>
        <param key="land_use" value="commercial"/>
    </poi>
    <poi id="poi_transit_stop_0" type="transit_stop" x="754.2" y="386.46" color="255,200,40" layer="10">
        <param key="kind" value="transit_stop"/>
        <param key="edge" value="e_n3_1_n_zip1"/>
        <param key="weight" value="0.7017"/>
        <param key="land_use" value="transit"/>
    </poi>
    <poi id="poi_transit_stop_1" type="transit_stop" x="879.11" y="761.6" color="255,200,40" layer="10">
        <param key="kind" value="transit_stop"/>
        <param key="edge" value="e_n4_3_n3_3"/>
        <param key="weight" value="0.642"/>
        <param key="land_use" value="transit"/>
    </poi>
    <poi id="poi_transit_stop_2" type="transit_stop" x="824.09" y="738.4" color="255,200,40" layer="10">
        <param key="kind" value="transit_stop"/>
        <param key="edge" value="e_n3_3_n4_3"/>
        <param key="weight" value="0.6404"/>
        <param key="land_use" value="transit"/>
    </poi>
    <poi id="poi_transit_stop_3" type="transit_stop" x="742.6" y="672.71" color="255,200,40" layer="10">
        <param key="kind" value="transit_stop"/>
        <param key="edge" value="e_n3_3_n3_2"/>
        <param key="weight" value="0.6614"/>
        <param key="land_use" value="transit"/>
    </poi>
    <poi id="poi_building_entrance_0" type="building_entrance" x="192.65" y="194.91" color="80,160,255" layer="10">
        <param key="kind" value="building_entrance"/>
        <param key="edge" value="e_park_c_n0_0"/>
        <param key="weight" value="0.0381"/>
        <param key="facing" value="-0.707,0.707"/>
        <param key="land_use" value="residential"/>
    </poi>
    <poi id="poi_building_entrance_1" type="building_entrance" x="231.44" y="554.2" color="80,160,255" layer="10">
        <param key="kind" value="building_entrance"/>
        <param key="edge" value="e_n1_2_n0_2"/>
        <param key="weight" value="0.0667"/>
        <param key="facing" value="0.0,1.0"/>
        <param key="land_use" value="residential"/>
    </poi>
    <poi id="poi_building_entrance_2" type="building_entrance" x="212.55" y="210.29" color="80,160,255" layer="10">
        <param key="kind" value="building_entrance"/>
        <param key="edge" value="e_n0_0_park_c"/>
        <param key="weight" value="0.0381"/>
        <param key="facing" value="0.707,-0.707"/>
        <param key="land_use" value="residential"/>
    </poi>
    <poi id="poi_building_entrance_3" type="building_entrance" x="194.91" y="307.35" color="80,160,255" layer="10">
        <param key="kind" value="building_entrance"/>
        <param key="edge" value="e_park_c_n0_1"/>
        <param key="weight" value="0.0617"/>
        <param key="facing" value="0.707,0.707"/>
        <param key="land_use" value="residential"/>
    </poi>
    <poi id="poi_building_entrance_4" type="building_entrance" x="289.71" y="212.55" color="80,160,255" layer="10">
        <param key="kind" value="building_entrance"/>
        <param key="edge" value="e_n1_0_park_c"/>
        <param key="weight" value="0.0617"/>
        <param key="facing" value="0.707,0.707"/>
        <param key="land_use" value="residential"/>
    </poi>
    <poi id="poi_building_entrance_5" type="building_entrance" x="210.29" y="287.45" color="80,160,255" layer="10">
        <param key="kind" value="building_entrance"/>
        <param key="edge" value="e_n0_1_park_c"/>
        <param key="weight" value="0.0617"/>
        <param key="facing" value="-0.707,-0.707"/>
        <param key="land_use" value="residential"/>
    </poi>
    <poi id="poi_building_entrance_6" type="building_entrance" x="226.86" y="954.2" color="80,160,255" layer="10">
        <param key="kind" value="building_entrance"/>
        <param key="edge" value="e_ra_w_n0_4"/>
        <param key="weight" value="0.1303"/>
        <param key="facing" value="0.0,1.0"/>
        <param key="land_use" value="residential"/>
    </poi>
    <poi id="poi_building_entrance_7" type="building_entrance" x="261.69" y="945.8" color="80,160,255" layer="10">
        <param key="kind" value="building_entrance"/>
        <param key="edge" value="e_n0_4_ra_w"/>
        <param key="weight" value="0.1303"/>
        <param key="facing" value="0.0,-1.0"/>
        <param key="land_use" value="residential"/>
    </poi>
    <poi id="poi_building_entrance_8" type="building_entrance" x="1068.56" y="945.8" color="80,160,255" layer="10">
        <param key="kind" value="building_entrance"/>
        <param key="edge" value="e_n4_4_n5_4"/>
        <param key="weight" value="0.0935"/>
        <param key="facing" value="0.0,-1.0"/>
        <param key="land_use" value="residential"/>
    </poi>
    <poi id="poi_building_entrance_9" type="building_entrance" x="305.09" y="192.65" color="80,160,255" layer="10">
        <param key="kind" value="building_entrance"/>
        <param key="edge" value="e_park_c_n1_0"/>
        <param key="weight" value="0.0654"/>
        <param key="facing" value="-0.707,-0.707"/>
        <param key="land_use" value="residential"/>
    </poi>
    <poi id="poi_building_entrance_10" type="building_entrance" x="1145.8" y="230.24" color="80,160,255" layer="10">
        <param key="kind" value="building_entrance"/>
        <param key="edge" value="e_n5_1_n5_0"/>
        <param key="weight" value="0.018"/>
        <param key="facing" value="-1.0,-0.0"/>
        <param key="land_use" value="residential"/>
    </poi>
    <poi id="poi_building_entrance_11" type="building_entrance" x="1154.2" y="267.76" color="80,160,255" layer="10">
        <param key="kind" value="building_entrance"/>
        <param key="edge" value="e_n5_0_n5_1"/>
        <param key="weight" value="0.018"/>
        <param key="facing" value="1.0,-0.0"/>
        <param key="land_use" value="residential"/>
    </poi>
    <poi id="poi_building_entrance_12" type="building_entrance" x="954.2" y="1068.56" color="80,160,255" layer="10">
        <param key="kind" value="building_entrance"/>
        <param key="edge" value="e_n4_4_n4_5"/>
        <param key="weight" value="0.0945"/>
        <param key="facing" value="1.0,-0.0"/>
        <param key="land_use" value="residential"/>
    </poi>
    <poi id="poi_building_entrance_13" type="building_entrance" x="954.2" y="268.56" color="80,160,255" layer="10">
        <param key="kind" value="building_entrance"/>
        <param key="edge" value="e_n4_0_n4_1"/>
        <param key="weight" value="0.0948"/>
        <param key="facing" value="1.0,-0.0"/>
        <param key="land_use" value="residential"/>
    </poi>
    <poi id="poi_dwell_spot_0" type="dwell_spot" x="249.11" y="244.56" color="80,220,120" layer="10">
        <param key="kind" value="dwell_spot"/>
        <param key="edge" value=":park_c_w0"/>
        <param key="weight" value="0.1032"/>
        <param key="capacity" value="40"/>
        <param key="land_use" value="open_space"/>
    </poi>
    <poi id="poi_dwell_spot_1" type="dwell_spot" x="145.15" y="157.42" color="80,220,120" layer="10">
        <param key="kind" value="dwell_spot"/>
        <param key="edge" value=":n0_0_w0"/>
        <param key="weight" value="0.0422"/>
        <param key="capacity" value="25"/>
        <param key="land_use" value="open_space"/>
    </poi>
    <poi id="poi_dwell_spot_2" type="dwell_spot" x="161.23" y="154.29" color="80,220,120" layer="10">
        <param key="kind" value="dwell_spot"/>
        <param key="edge" value=":n0_0_w1"/>
        <param key="weight" value="0.0422"/>
        <param key="capacity" value="19"/>
        <param key="land_use" value="open_space"/>
    </poi>
    <poi id="poi_dwell_spot_3" type="dwell_spot" x="154.29" y="338.77" color="80,220,120" layer="10">
        <param key="kind" value="dwell_spot"/>
        <param key="edge" value=":n0_1_w2"/>
        <param key="weight" value="0.0991"/>
        <param key="capacity" value="19"/>
        <param key="land_use" value="open_space"/>
    </poi>
    <poi id="poi_dwell_spot_4" type="dwell_spot" x="345.71" y="161.23" color="80,220,120" layer="10">
        <param key="kind" value="dwell_spot"/>
        <param key="edge" value=":n1_0_w0"/>
        <param key="weight" value="0.0906"/>
        <param key="capacity" value="19"/>
        <param key="land_use" value="open_space"/>
    </poi>
    <poi id="poi_dwell_spot_5" type="dwell_spot" x="338.77" y="345.71" color="80,220,120" layer="10">
        <param key="kind" value="dwell_spot"/>
        <param key="edge" value=":n1_1_w3"/>
        <param key="weight" value="0.1917"/>
        <param key="capacity" value="19"/>
        <param key="land_use" value="open_space"/>
    </poi>
    <poi id="poi_dwell_spot_6" type="dwell_spot" x="144.8" y="347.99" color="80,220,120" layer="10">
        <param key="kind" value="dwell_spot"/>
        <param key="edge" value=":n0_1_w0"/>
        <param key="weight" value="0.0991"/>
        <param key="capacity" value="18"/>
        <param key="land_use" value="open_space"/>
    </poi>
    <poi id="poi_dwell_spot_7" type="dwell_spot" x="347.99" y="144.8" color="80,220,120" layer="10">
        <param key="kind" value="dwell_spot"/>
        <param key="edge" value=":n1_0_w2"/>
        <param key="weight" value="0.0906"/>
        <param key="capacity" value="18"/>
        <param key="land_use" value="open_space"/>
    </poi>
    <poi id="poi_parking_access_0" type="parking_access" x="154.2" y="250.0" color="180,120,255" layer="10">
        <param key="kind" value="parking_access"/>
        <param key="edge" value="e_n0_0_n0_1"/>
        <param key="weight" value="0.0565"/>
        <param key="land_use" value="parking"/>
    </poi>
    <poi id="poi_parking_access_1" type="parking_access" x="250.0" y="145.8" color="180,120,255" layer="10">
        <param key="kind" value="parking_access"/>
        <param key="edge" value="e_n0_0_n1_0"/>
        <param key="weight" value="0.0272"/>
        <param key="land_use" value="parking"/>
    </poi>
    <poi id="poi_parking_access_2" type="parking_access" x="145.8" y="250.0" color="180,120,255" layer="10">
        <param key="kind" value="parking_access"/>
        <param key="edge" value="e_n0_1_n0_0"/>
        <param key="weight" value="0.0601"/>
        <param key="land_use" value="parking"/>
    </poi>
    <poi id="poi_parking_access_3" type="parking_access" x="154.2" y="450.0" color="180,120,255" layer="10">
        <param key="kind" value="parking_access"/>
        <param key="edge" value="e_n0_1_n0_2"/>
        <param key="weight" value="0.1631"/>
        <param key="land_use" value="parking"/>
    </poi>
    <poi id="poi_parking_access_4" type="parking_access" x="250.0" y="345.8" color="180,120,255" layer="10">
        <param key="kind" value="parking_access"/>
        <param key="edge" value="e_n0_1_n1_1"/>
        <param key="weight" value="0.131"/>
        <param key="land_use" value="parking"/>
    </poi>
    <poi id="poi_parking_access_5" type="parking_access" x="145.8" y="450.0" color="180,120,255" layer="10">
        <param key="kind" value="parking_access"/>
        <param key="edge" value="e_n0_2_n0_1"/>
        <param key="weight" value="0.1586"/>
        <param key="land_use" value="parking"/>
    </poi>
    <poi id="poi_parking_access_6" type="parking_access" x="154.2" y="646.05" color="180,120,255" layer="10">
        <param key="kind" value="parking_access"/>
        <param key="edge" value="e_n0_2_n0_3"/>
        <param key="weight" value="0.1896"/>
        <param key="land_use" value="parking"/>
    </poi>
    <poi id="poi_parking_access_7" type="parking_access" x="250.0" y="545.8" color="180,120,255" layer="10">
        <param key="kind" value="parking_access"/>
        <param key="edge" value="e_n0_2_n1_2"/>
        <param key="weight" value="0.1273"/>
        <param key="land_use" value="parking"/>
    </poi>
    <poi id="poi_parking_access_8" type="parking_access" x="145.8" y="646.05" color="180,120,255" layer="10">
        <param key="kind" value="parking_access"/>
        <param key="edge" value="e_n0_3_n0_2"/>
        <param key="weight" value="0.2058"/>
        <param key="land_use" value="parking"/>
    </poi>
    <poi id="poi_parking_access_9" type="parking_access" x="154.2" y="853.95" color="180,120,255" layer="10">
        <param key="kind" value="parking_access"/>
        <param key="edge" value="e_n0_3_n0_4"/>
        <param key="weight" value="0.2358"/>
        <param key="land_use" value="parking"/>
    </poi>
    <poi id="poi_parking_access_10" type="parking_access" x="250.0" y="738.4" color="180,120,255" layer="10">
        <param key="kind" value="parking_access"/>
        <param key="edge" value="e_n0_3_n1_3"/>
        <param key="weight" value="0.467"/>
        <param key="land_use" value="parking"/>
    </poi>
    <poi id="poi_parking_access_11" type="parking_access" x="145.8" y="853.95" color="180,120,255" layer="10">
        <param key="kind" value="parking_access"/>
        <param key="edge" value="e_n0_4_n0_3"/>
        <param key="weight" value="0.2358"/>
        <param key="land_use" value="parking"/>
    </poi>
    <poi id="poi_parking_access_12" type="parking_access" x="154.2" y="1051.0" color="180,120,255" layer="10">
        <param key="kind" value="parking_access"/>
        <param key="edge" value="e_n0_4_n0_5"/>
        <param key="weight" value="0.1263"/>
        <param key="land_use" value="parking"/>
    </poi>
    <poi id="poi_parking_access_13" type="parking_access" x="244.28" y="945.8" color="180,120,255" layer="10">
        <param key="kind" value="parking_access"/>
        <param key="edge" value="e_n0_4_ra_w"/>
        <param key="weight" value="0.2084"/>
        <param key="land_use" value="parking"/>
    </poi>
    <poi id="poi_parking_access_14" type="parking_access" x="145.8" y="1051.0" color="180,120,255" layer="10">
        <param key="kind" value="parking_access"/>
        <param key="edge" value="e_n0_5_n0_4"/>
        <param key="weight" value="0.1263"/>
        <param key="land_use" value="parking"/>
    </poi>
    <poi id="poi_parking_access_15" type="parking_access" x="249.0" y="1145.8" color="180,120,255" layer="10">
        <param key="kind" value="parking_access"/>
        <param key="edge" value="e_n0_5_n1_5"/>
        <param key="weight" value="0.0924"/>
        <param key="land_use" value="parking"/>
    </poi>
    <poi id="poi_parking_access_16" type="parking_access" x="250.0" y="154.2" color="180,120,255" layer="10">
        <param key="kind" value="parking_access"/>
        <param key="edge" value="e_n1_0_n0_0"/>
        <param key="weight" value="0.0236"/>
        <param key="land_use" value="parking"/>
    </poi>
    <poi id="poi_parking_access_17" type="parking_access" x="354.2" y="250.0" color="180,120,255" layer="10">
        <param key="kind" value="parking_access"/>
        <param key="edge" value="e_n1_0_n1_1"/>
        <param key="weight" value="0.1499"/>
        <param key="land_use" value="parking"/>
    </poi>
    <poi id="poi_parking_access_18" type="parking_access" x="450.0" y="145.8" color="180,120,255" layer="10">
        <param key="kind" value="parking_access"/>
        <param key="edge" value="e_n1_0_n2_0"/>
        <param key="weight" value="0.1419"/>
        <param key="land_use" value="parking"/>
    </poi>
    <poi id="poi_parking_access_19" type="parking_access" x="250.0" y="354.2" color="180,120,255" layer="10">
        <param key="kind" value="parking_access"/>
        <param key="edge" value="e_n1_1_n0_1"/>
        <param key="weight" value="0.1391"/>
        <param key="land_use" value="parking"/>
    </poi>
    <poi id="poi_parking_access_20" type="parking_access" x="345.8" y="250.0" color="180,120,255" layer="10">
        <param key="kind" value="parking_access"/>
        <param key="edge" value="e_n1_1_n1_0"/>
        <param key="weight" value="0.1609"/>
        <param key="land_use" value="parking"/>
    </poi>
    <poi id="poi_parking_access_21" type="parking_access" x="354.2" y="450.0" color="180,120,255" layer="10">
        <param key="kind" value="parking_access"/>
        <param key="edge" value="e_n1_1_n1_2"/>
        <param key="weight" value="0.3591"/>
        <param key="land_use" value="parking"/>
    </poi>
    <poi id="poi_parking_access_22" type="parking_access" x="250.0" y="554.2" color="180,120,255" layer="10">
        <param key="kind" value="parking_access"/>
        <param key="edge" value="e_n1_2_n0_2"/>
        <param key="weight" value="0.1067"/>
        <param key="land_use" value="parking"/>
    </poi>
    <poi id="poi_parking_access_23" type="parking_access" x="345.8" y="450.0" color="180,120,255" layer="10">
        <param key="kind" value="parking_access"/>
        <param key="edge" value="e_n1_2_n1_1"/>
        <param key="weight" value="0.2708"/>
        <param key="land_use" value="parking"/>
    </poi>
    <poi id="poi_parking_access_24" type="parking_access" x="354.2" y="646.05" color="180,120,255" layer="10">
        <param key="kind" value="parking_access"/>
        <param key="edge" value="e_n1_2_n1_3"/>
        <param key="weight" value="0.3768"/>
        <param key="land_use" value="parking"/>
    </poi>
    <poi id="poi_parking_access_25" type="parking_access" x="450.0" y="542.6" color="180,120,255" layer="10">
        <param key="kind" value="parking_access"/>
        <param key="edge" value="e_n1_2_n2_2"/>
        <param key="weight" value="0.3125"/>
        <param key="land_use" value="parking"/>
    </poi>
    <poi id="poi_parking_access_26" type="parking_access" x="250.0" y="761.6" color="180,120,255" layer="10">
        <param key="kind" value="parking_access"/>
        <param key="edge" value="e_n1_3_n0_3"/>
        <param key="weight" value="0.4832"/>
        <param key="land_use" value="parking"/>
    </poi>
    <poi id="poi_parking_access_27" type="parking_access" x="345.8" y="646.05" color="180,120,255" layer="10">
        <param key="kind" value="parking_access"/>
        <param key="edge" value="e_n1_3_n1_2"/>
        <param key="weight" value="0.3533"/>
        <param key="land_use" value="parking"/>
    </poi>
    <poi id="poi_parking_access_28" type="parking_access" x="450.0" y="738.4" color="180,120,255" layer="10">
        <param key="kind" value="parking_access"/>
        <param key="edge" value="e_n1_3_n2_3"/>
        <param key="weight" value="0.7695"/>
        <param key="land_use" value="parking"/>
    </poi>
    <poi id="poi_parking_access_29" type="parking_access" x="354.2" y="848.23" color="180,120,255" layer="10">
        <param key="kind" value="parking_access"/>
        <param key="edge" value="e_n1_3_ra_s"/>
        <param key="weight" value="0.5104"/>
        <param key="land_use" value="parking"/>
    </poi>
    <poi id="poi_parking_access_30" type="parking_access" x="249.0" y="1154.2" color="180,120,255" layer="10">
        <param key="kind" value="parking_access"/>
        <param key="edge" value="e_n1_5_n0_5"/>
        <param key="weight" value="0.0924"/>
        <param key="land_use" value="parking"/>
    </poi>
    <poi id="poi_parking_access_31" type="parking_access" x="450.0" y="1145.8" color="180,120,255" layer="10">
        <param key="kind" value="parking_access"/>
        <param key="edge" value="e_n1_5_n2_5"/>
        <param key="weight" value="0.1636"/>
        <param key="land_use" value="parking"/>
    </poi>
    <poi id="poi_parking_access_32" type="parking_access" x="345.8" y="1055.72" color="180,120,255" layer="10">
        <param key="kind" value="parking_access"/>
        <param key="edge" value="e_n1_5_ra_n"/>
        <param key="weight" value="0.2555"/>
        <param key="land_use" value="parking"/>
    </poi>
    <poi id="poi_parking_access_33" type="parking_access" x="450.0" y="154.2" color="180,120,255" layer="10">
        <param key="kind" value="parking_access"/>
        <param key="edge" value="e_n2_0_n1_0"/>
        <param key="weight" value="0.1213"/>
        <param key="land_use" value="parking"/>
    </poi>
    <poi id="poi_parking_access_34" type="parking_access" x="554.2" y="250.0" color="180,120,255" layer="10">
        <param key="kind" value="parking_access"/>
        <param key="edge" value="e_n2_0_n2_1"/>
        <param key="weight" value="0.1848"/>
        <param key="land_use" value="parking"/>
    </poi>
    <poi id="poi_parking_access_35" type="parking_access" x="648.4" y="145.8" color="180,120,255" layer="10">
        <param key="kind" value="parking_access"/>
        <param key="edge" value="e_n2_0_n3_0"/>
        <param key="weight" value="0.1778"/>
        <param key="land_use" value="parking"/>
    </poi>
    <poi id="poi_parking_access_36" type="parking_access" x="450.0" y="357.4" color="180,120,255" layer="10">
        <param key="kind" value="parking_access"/>
        <param key="edge" value="e_n2_1_n1_1"/>
        <param key="weight" value="0.3405"/>
        <param key="land_use" value="parking"/>
    </poi>
    <poi id="poi_parking_access_37" type="parking_access" x="545.8" y="250.0" color="180,120,255" layer="10">
        <param key="kind" value="parking_access"/>
        <param key="edge" value="e_n2_1_n2_0"/>
        <param key="weight" value="0.1759"/>
        <param key="land_use" value="parking"/>
    </poi>
    <poi id="poi_parking_access_38" type="parking_access" x="554.2" y="447.93" color="180,120,255" layer="10">
        <param key="kind" value="parking_access"/>
        <param key="edge" value="e_n2_1_n2_2"/>
        <param key="weight" value="0.2865"/>
        <param key="land_use" value="parking"/>
    </poi>
    <poi id="poi_parking_access_39" type="parking_access" x="648.4" y="345.8" color="180,120,255" layer="10">
        <param key="kind" value="parking_access"/>
        <param key="edge" value="e_n2_1_n3_1"/>
        <param key="weight" value="0.2747"/>
        <param key="land_use" value="parking"/>
    </poi>
    <poi id="poi_parking_access_40" type="parking_access" x="545.8" y="447.93" color="180,120,255" layer="10">
        <param key="kind" value="parking_access"/>
        <param key="edge" value="e_n2_2_n2_1"/>
        <param key="weight" value="0.2998"/>
        <param key="land_use" value="parking"/>
    </poi>
    <poi id="poi_parking_access_41" type="parking_access" x="554.2" y="646.05" color="180,120,255" layer="10">
        <param key="kind" value="parking_access"/>
        <param key="edge" value="e_n2_2_n2_3"/>
        <param key="weight" value="0.3189"/>
        <param key="land_use" value="parking"/>
    </poi>
    <poi id="poi_parking_access_42" type="parking_access" x="648.4" y="545.8" color="180,120,255" layer="10">
        <param key="kind" value="parking_access"/>
        <param key="edge" value="e_n2_2_n3_2"/>
        <param key="weight" value="0.3057"/>
        <param key="land_use" value="parking"/>
    </poi>
    <poi id="poi_parking_access_43" type="parking_access" x="602.17" y="491.88" color="180,120,255" layer="10">
        <param key="kind" value="parking_access"/>
        <param key="edge" value="e_n2_2_ramp1"/>
        <param key="weight" value="0.4113"/>
        <param key="land_use" value="parking"/>
    </poi>
    <poi id="poi_parking_access_44" type="parking_access" x="450.0" y="761.6" color="180,120,255" layer="10">
        <param key="kind" value="parking_access"/>
        <param key="edge" value="e_n2_3_n1_3"/>
        <param key="weight" value="0.744"/>
        <param key="land_use" value="parking"/>
    </poi>
    <poi id="poi_parking_access_45" type="parking_access" x="545.8" y="646.05" color="180,120,255" layer="10">
        <param key="kind" value="parking_access"/>
        <param key="edge" value="e_n2_3_n2_2"/>
        <param key="weight" value="0.369"/>
        <param key="land_use" value="parking"/>
    </poi>
    <poi id="poi_parking_access_46" type="parking_access" x="554.2" y="853.95" color="180,120,255" layer="10">
        <param key="kind" value="parking_access"/>
        <param key="edge" value="e_n2_3_n2_4"/>
        <param key="weight" value="0.3528"/>
        <param key="land_use" value="parking"/>
    </poi>
    <poi id="poi_parking_access_47" type="parking_access" x="648.4" y="738.4" color="180,120,255" layer="10">
        <param key="kind" value="parking_access"/>
        <param key="edge" value="e_n2_3_n3_3"/>
        <param key="weight" value="0.6787"/>
        <param key="land_use" value="parking"/>
    </poi>
    <poi id="poi_parking_access_48" type="parking_access" x="545.8" y="853.95" color="180,120,255" layer="10">
        <param key="kind" value="parking_access"/>
        <param key="edge" value="e_n2_4_n2_3"/>
        <param key="weight" value="0.3543"/>
        <param key="land_use" value="parking"/>
    </poi>
    <poi id="poi_parking_access_49" type="parking_access" x="554.2" y="1050.0" color="180,120,255" layer="10">
        <param key="kind" value="parking_access"/>
        <param key="edge" value="e_n2_4_n2_5"/>
        <param key="weight" value="0.2231"/>
        <param key="land_use" value="parking"/>
    </poi>
    <poi id="poi_parking_access_50" type="parking_access" x="648.4" y="945.8" color="180,120,255" layer="10">
        <param key="kind" value="parking_access"/>
        <param key="edge" value="e_n2_4_n3_4"/>
        <param key="weight" value="0.3047"/>
        <param key="land_use" value="parking"/>
    </poi>
    <poi id="poi_parking_access_51" type="parking_access" x="455.72" y="954.2" color="180,120,255" layer="10">
        <param key="kind" value="parking_access"/>
        <param key="edge" value="e_n2_4_ra_e"/>
        <param key="weight" value="0.3396"/>
        <param key="land_use" value="parking"/>
    </poi>
    <poi id="poi_parking_access_52" type="parking_access" x="450.0" y="1154.2" color="180,120,255" layer="10">
        <param key="kind" value="parking_access"/>
        <param key="edge" value="e_n2_5_n1_5"/>
        <param key="weight" value="0.1636"/>
        <param key="land_use" value="parking"/>
    </poi>
    <poi id="poi_parking_access_53" type="parking_access" x="545.8" y="1050.0" color="180,120,255" layer="10">
        <param key="kind" value="parking_access"/>
        <param key="edge" value="e_n2_5_n2_4"/>
        <param key="weight" value="0.2246"/>
        <param key="land_use" value="parking"/>
    </poi>
    <poi id="poi_parking_access_54" type="parking_access" x="648.4" y="1145.8" color="180,120,255" layer="10">
        <param key="kind" value="parking_access"/>
        <param key="edge" value="e_n2_5_n3_5"/>
        <param key="weight" value="0.1263"/>
        <param key="land_use" value="parking"/>
    </poi>
    <poi id="poi_parking_access_55" type="parking_access" x="648.4" y="154.2" color="180,120,255" layer="10">
        <param key="kind" value="parking_access"/>
        <param key="edge" value="e_n3_0_n2_0"/>
        <param key="weight" value="0.1812"/>
        <param key="land_use" value="parking"/>
    </poi>
    <poi id="poi_parking_access_56" type="parking_access" x="757.4" y="250.0" color="180,120,255" layer="10">
        <param key="kind" value="parking_access"/>
        <param key="edge" value="e_n3_0_n3_1"/>
        <param key="weight" value="0.442"/>
        <param key="land_use" value="parking"/>
    </poi>
    <poi id="poi_parking_access_57" type="parking_access" x="851.6" y="145.8" color="180,120,255" layer="10">
        <param key="kind" value="parking_access"/>
        <param key="edge" value="e_n3_0_n4_0"/>
        <param key="weight" value="0.1871"/>
        <param key="land_use" value="parking"/>
    </poi>
    <poi id="poi_parking_access_58" type="parking_access" x="648.4" y="354.2" color="180,120,255" layer="10">