<?xml version='1.0' encoding='UTF-8'?>
<routes xmlns:xsi="http://www.w3.org/2001/XMLSchema-instance" xsi:noNamespaceSchemaLocation="http://sumo.dlr.de/xsd/routes_file.xsd">
    <vehicle id="1" depart="0.69" departLane="1" departSpeed="max" departPos="stop">
        <route edges="e_n1_2_n2_2 e_n2_2_n2_3 e_n2_3_n1_3 e_n1_3_n0_3 e_n0_3_n0_4" />
    <stop parkingArea="pa_e_n1_2_n2_2" duration="5" /><stop parkingArea="pa_e_n0_3_n0_4" duration="100000" /></vehicle>
    <vehicle id="2" depart="1.39" departLane="1" departSpeed="max" departPos="stop">
        <route edges="e_n5_0_n4_0 e_n4_0_n4_1 e_n4_1_n4_2 e_n4_2_n4_3 e_n4_3_n4_4 e_n4_4_n3_4 e_n3_4_n3_3" />
    <stop parkingArea="pa_e_n5_0_n4_0" duration="5" /><stop parkingArea="pa_e_n3_4_n3_3" duration="100000" /></vehicle>
    <vehicle id="5" depart="3.47" departLane="1" departSpeed="max" departPos="stop">
        <route edges="e_n1_0_n1_1 e_n1_1_n1_2 e_n1_2_n2_2 e_n2_2_n2_1 e_n2_1_n2_0 e_n2_0_n3_0 e_n3_0_n3_1" />
    <stop parkingArea="pa_e_n1_0_n1_1" duration="5" /><stop parkingArea="pa_e_n3_0_n3_1" duration="100000" /></vehicle>
    <vehicle id="6" depart="4.16" departLane="best" departSpeed="max">
        <route edges="e_fringe_n_collector_n3_5 e_n3_5_n3_4 e_n3_4_n3_3 e_n3_3_n2_3 e_n2_3_n1_3 e_n1_3_n0_3 e_n0_3_fringe_w_arterial" />
    </vehicle>
    <vehicle id="7" depart="4.86" departLane="1" departSpeed="max" departPos="stop">
        <route edges="e_n4_2_n3_2 e_n3_2_n3_1 e_n3_1_n_zip1" />
    <stop parkingArea="pa_e_n4_2_n3_2" duration="5" /><stop parkingArea="pa_e_n3_1_n_zip1" duration="100000" /></vehicle>
    <vehicle id="8" depart="5.55" departLane="1" departSpeed="max" departPos="stop">
        <route edges="e_n1_0_n2_0 e_n2_0_n3_0 e_n3_0_n3_1 e_n3_1_n_zip1 e_n_zip1_n3_2 e_n3_2_n3_3" />
    <stop parkingArea="pa_e_n1_0_n2_0" duration="5" /><stop parkingArea="pa_e_n3_2_n3_3" duration="100000" /></vehicle>
    <vehicle id="11" depart="7.63" departLane="1" departSpeed="max" departPos="stop">
        <route edges="e_n2_0_n3_0 e_n3_0_n3_1 e_n3_1_n2_1 e_n2_1_n1_1 e_n1_1_n0_1 e_n0_1_n0_2" />
    <stop parkingArea="pa_e_n2_0_n3_0" duration="5" /><stop parkingArea="pa_e_n0_1_n0_2" duration="100000" /></vehicle>
    <vehicle id="12" depart="8.33" departLane="1" departSpeed="max" departPos="stop">
        <route edges="e_ra_s_ra_e e_ra_e_n2_4 e_n2_4_n2_3 e_n2_3_n1_3 e_n1_3_ra_s" />
    <stop parkingArea="pa_e_ra_s_ra_e" duration="5" /><stop parkingArea="pa_e_n1_3_ra_s" duration="100000" /></vehicle>
    <vehicle id="14" depart="9.72" departLane="1" departSpeed="max" departPos="stop">
        <route edges="e_n5_4_n5_5 e_n5_5_n4_5 e_n4_5_n3_5 e_n3_5_n3_4 e_n3_4_n3_3 e_n3_3_n2_3" />
    <stop parkingArea="pa_e_n5_4_n5_5" duration="5" /><stop parkingArea="pa_e_n3_3_n2_3" duration="100000" /></vehicle>
    <vehicle id="16" depart="11.10" departLane="1" departSpeed="max" departPos="stop">
        <route edges="e_n3_2_n4_2 e_n4_2_n4_3 e_n4_3_n3_3 e_n3_3_n2_3 e_n2_3_n1_3 e_n1_3_ra_s e_ra_s_ra_e e_ra_e_ra_n e_ra_n_ra_w e_ra_w_ra_s e_ra_s_n1_3" />
    <stop parkingArea="pa_e_n3_2_n4_2" duration="5" /><stop parkingArea="pa_e_ra_s_n1_3" duration="100000" /></vehicle>
    <vehicle id="17" depart="11.80" departLane="1" departSpeed="max" departPos="stop">
        <route edges="e_n2_2_n2_3 e_n2_3_n3_3 e_n3_3_n3_2 e_n3_2_n3_1 e_n3_1_n_zip1" />
    <stop parkingArea="pa_e_n2_2_n2_3" duration="5" /><stop parkingArea="pa_e_n3_1_n_zip1" duration="100000" /></vehicle>
    <vehicle id="18" depart="12.49" departLane="1" departSpeed="max" departPos="stop">
        <route edges="e_n5_3_n5_4 e_n5_4_n4_4 e_n4_4_n4_3 e_n4_3_n3_3 e_n3_3_n2_3" />
    <stop parkingArea="pa_e_n5_3_n5_4" duration="5" /><stop parkingArea="pa_e_n3_3_n2_3" duration="100000" /></vehicle>
    <vehicle id="19" depart="13.19" departLane="1" departSpeed="max" departPos="stop">
        <route edges="e_n5_5_n4_5 e_n4_5_n3_5 e_n3_5_n3_4 e_n3_4_n3_3 e_n3_3_n3_2 e_n3_2_n3_1 e_n3_1_n_zip1 e_n_zip1_n3_2 e_n3_2_n3_3" />
    <stop parkingArea="pa_e_n5_5_n4_5" duration="5" /><stop parkingArea="pa_e_n3_2_n3_3" duration="100000" /></vehicle>
    <vehicle id="21" depart="14.57" departLane="1" departSpeed="max" departPos="stop">
        <route edges="e_n1_1_n0_1 e_n0_1_n0_2 e_n0_2_n1_2 e_n1_2_n1_3 e_n1_3_n0_3" />
    <stop parkingArea="pa_e_n1_1_n0_1" duration="5" /><stop parkingArea="pa_e_n1_3_n0_3" duration="100000" /></vehicle>
    <vehicle id="22" depart="15.27" departLane="1" departSpeed="max" departPos="stop">
        <route edges="e_n0_0_n1_0 e_n1_0_n1_1 e_n1_1_n0_1 e_n0_1_n0_2 e_n0_2_n0_3 e_n0_3_n1_3" />
    <stop parkingArea="pa_e_n0_0_n1_0" duration="5" /><stop parkingArea="pa_e_n0_3_n1_3" duration="100000" /></vehicle>
    <vehicle id="23" depart="15.96" departLane="1" departSpeed="max" departPos="stop">
        <route edges="e_n0_1_n0_2 e_n0_2_n1_2 e_n1_2_n1_3" />
    <stop parkingArea="pa_e_n0_1_n0_2" duration="5" /><stop parkingArea="pa_e_n1_2_n1_3" duration="100000" /></vehicle>
    <vehicle id="24" depart="16.66" departLane="1" departSpeed="max" departPos="stop">
        <route edges="e_n4_1_n4_2 e_n4_2_n3_2 e_n3_2_n3_1 e_n3_1_n2_1 e_n2_1_n1_1" />
    <stop parkingArea="pa_e_n4_1_n4_2" duration="5" /><stop parkingArea="pa_e_n2_1_n1_1" duration="100000" /></vehicle>
    <vehicle id="25" depart="17.35" departLane="1" departSpeed="max" departPos="stop">
        <route edges="e_n2_2_n2_1 e_n2_1_n1_1 e_n1_1_n1_2 e_n1_2_n1_3 e_n1_3_n0_3 e_n0_3_fringe_w_arterial" />
    <stop parkingArea="pa_e_n2_2_n2_1" duration="5" /></vehicle>
    <vehicle id="26" depart="18.04" departLane="1" departSpeed="max" departPos="stop">
        <route edges="e_n1_2_n1_3 e_n1_3_n2_3 e_n2_3_n2_2 e_n2_2_ramp1 e_ramp1_zip1 e_n_zip1_n3_2" />
    <stop parkingArea="pa_e_n1_2_n1_3" duration="5" /><stop parkingArea="pa_e_n_zip1_n3_2" duration="100000" /></vehicle>
    <vehicle id="27" depart="18.74" departLane="1" departSpeed="max" departPos="stop">
        <route edges="e_n4_2_n3_2 e_n3_2_n3_3 e_n3_3_n2_3" />
    <stop parkingArea="pa_e_n4_2_n3_2" duration="5" /><stop parkingArea="pa_e_n3_3_n2_3" duration="100000" /></vehicle>
    <vehicle id="28" depart="19.43" departLane="1" departSpeed="max" departPos="stop">
        <route edges="e_n0_4_n0_5 e_n0_5_n1_5 e_n1_5_n2_5 e_n2_5_n3_5 e_n3_5_n3_4" />
    <stop parkingArea="pa_e_n0_4_n0_5" duration="5" /><stop parkingArea="pa_e_n3_5_n3_4" duration="100000" /></vehicle>
    <vehicle id="29" depart="20.13" departLane="1" departSpeed="max" departPos="stop">
        <route edges="e_n0_4_n0_3 e_n0_3_n1_3 e_n1_3_n1_2 e_n1_2_n2_2 e_n2_2_n2_3" />
    <stop parkingArea="pa_e_n0_4_n0_3" duration="5" /><stop parkingArea="pa_e_n2_2_n2_3" duration="100000" /></vehicle>
    <vehicle id="30" depart="20.82" departLane="1" departSpeed="max" departPos="stop">
        <route edges="e_ramp1_zip1 e_n_zip1_n3_2 e_n3_2_n3_3 e_n3_3_n3_4" />
    <stop parkingArea="pa_e_ramp1_zip1" duration="5" /><stop parkingArea="pa_e_n3_3_n3_4" duration="100000" /></vehicle>
    <vehicle id="31" depart="21.51" departLane="1" departSpeed="max" departPos="stop">
        <route edges="e_n3_4_n4_4 e_n4_4_n4_3 e_n4_3_n3_3 e_n3_3_n3_4 e_n3_4_n3_5" />
    <stop parkingArea="pa_e_n3_4_n4_4" duration="5" /><stop parkingArea="pa_e_n3_4_n3_5" duration="100000" /></vehicle>
    <vehicle id="32" depart="22.21" departLane="1" departSpeed="max" departPos="stop">
        <route edges="e_n5_4_n5_3 e_n5_3_n4_3 e_n4_3_n3_3" />
    <stop parkingArea="pa_e_n5_4_n5_3" duration="5" /><stop parkingArea="pa_e_n4_3_n3_3" duration="100000" /></vehicle>
    <vehicle id="34" depart="23.60" departLane="1" departSpeed="max" departPos="stop">
        <route edges="e_n1_5_ra_n e_ra_n_ra_w e_ra_w_ra_s e_ra_s_n1_3 e_n1_3_n1_2 e_n1_2_n1_1 e_n1_1_n1_0" />
    <stop parkingArea="pa_e_n1_5_ra_n" duration="5" /><stop parkingArea="pa_e_n1_1_n1_0" duration="100000" /></vehicle>
    <vehicle id="35" depart="24.29" departLane="1" departSpeed="max" departPos="stop">
        <route edges="e_n1_0_n0_0 e_n0_0_n0_1 e_n0_1_n0_2 e_n0_2_n0_3 e_n0_3_n1_3 e_n1_3_ra_s e_ra_s_ra_e e_ra_e_n2_4" />
    <stop parkingArea="pa_e_n1_0_n0_0" duration="5" /><stop parkingArea="pa_e_ra_e_n2_4" duration="100000" /></vehicle>
    <vehicle id="36" depart="24.98" departLane="1" departSpeed="max" departPos="stop">
        <route edges="e_n_zip1_n3_2 e_n3_2_n3_3 e_n3_3_n2_3 e_n2_3_n1_3 e_n1_3_ra_s e_ra_s_ra_e e_ra_e_ra_n e_ra_n_ra_w e_ra_w_ra_s e_ra_s_n1_3 e_n1_3_n2_3" />
    <stop parkingArea="pa_e_n_zip1_n3_2" duration="5" /><stop parkingArea="pa_e_n1_3_n2_3" duration="100000" /></vehicle>
    <vehicle id="37" depart="25.68" departLane="1" departSpeed="max" departPos="stop">
        <route edges="e_n4_2_n4_1 e_n4_1_n3_1 e_n3_1_n_zip1 e_n_zip1_n3_2 e_n3_2_n3_3 e_n3_3_n2_3 e_n2_3_n1_3" />
    <stop parkingArea="pa_e_n4_2_n4_1" duration="5" /><stop parkingArea="pa_e_n2_3_n1_3" duration="100000" /></vehicle>
    <vehicle id="38" depart="26.37" departLane="1" departSpeed="max" departPos="stop">
        <route edges="e_ra_n_n1_5 e_n1_5_n2_5 e_n2_5_n2_4" />
    <stop parkingArea="pa_e_ra_n_n1_5" duration="5" /><stop parkingArea="pa_e_n2_5_n2_4" duration="100000" /></vehicle>
    <vehicle id="39" depart="27.07" departLane="1" departSpeed="max" departPos="stop">
        <route edges="e_n1_2_n1_1 e_n1_1_n0_1 e_n0_1_n0_2 e_n0_2_n0_3 e_n0_3_n0_4 e_n0_4_n0_5" />
    <stop parkingArea="pa_e_n1_2_n1_1" duration="5" /><stop parkingArea="pa_e_n0_4_n0_5" duration="100000" /></vehicle>
    <vehicle id="41" depart="28.45" departLane="1" departSpeed="max" departPos="stop">
        <route edges="e_n3_5_n2_5 e_n2_5_n2_4 e_n2_4_n3_4 e_n3_4_n4_4 e_n4_4_n5_4 e_n5_4_n5_3 e_n5_3_n4_3" />
    <stop parkingArea="pa_e_n3_5_n2_5" duration="5" /><stop parkingArea="pa_e_n5_3_n4_3" duration="100000" /></vehicle>
    <vehicle id="42" depart="29.15" departLane="1" departSpeed="max" departPos="stop">
        <route edges="e_n2_3_n2_2 e_n2_2_n3_2 e_n3_2_n3_3 e_n3_3_n2_3 e_n2_3_n1_3 e_n1_3_n0_3 e_n0_3_n0_2" />
    <stop parkingArea="pa_e_n2_3_n2_2" duration="5" /><stop parkingArea="pa_e_n0_3_n0_2" duration="100000" /></vehicle>
    <vehicle id="43" depart="29.84" departLane="1" departSpeed="max" departPos="stop">
        <route edges="e_ramp1_zip1 e_n_zip1_n3_2 e_n3_2_n3_1 e_n3_1_n4_1 e_n4_1_n4_0 e_n4_0_n3_0 e_n3_0_n3_1" />
    <stop parkingArea="pa_e_ramp1_zip1" duration="5" /><stop parkingArea="pa_e_n3_0_n3_1" duration="100000" /></vehicle>
    <vehicle id="45" depart="31.23" departLane="1" departSpeed="max" departPos="stop">
        <route edges="e_n0_1_n1_1 e_n1_1_n1_2 e_n1_2_n1_3 e_n1_3_n2_3 e_n2_3_n3_3 e_n3_3_n3_2" />
    <stop parkingArea="pa_e_n0_1_n1_1" duration="5" /><stop parkingArea="pa_e_n3_3_n3_2" duration="100000" /></vehicle>
    <vehicle id="46" depart="31.92" departLane="1" departSpeed="max" departPos="stop">
        <route edges="e_n5_2_n5_1 e_n5_1_n4_1 e_n4_1_n3_1 e_n3_1_n_zip1 e_n_zip1_n3_2 e_n3_2_n2_2 e_n2_2_n2_3 e_n2_3_n3_3" />
    <stop parkingArea="pa_e_n5_2_n5_1" duration="5" /><stop parkingArea="pa_e_n2_3_n3_3" duration="100000" /></vehicle>
    <vehicle id="47" depart="32.62" departLane="best" departSpeed="max">
        <route edges="e_fringe_w_arterial_n0_3 e_n0_3_n1_3 e_n1_3_n2_3 e_n2_3_n2_2 e_n2_2_n3_2" />
    <stop parkingArea="pa_e_n2_2_n3_2" duration="100000" /></vehicle>
    <vehicle id="48" depart="33.31" departLane="1" departSpeed="max" departPos="stop">
        <route edges="e_ramp1_zip1 e_n_zip1_n3_2 e_n3_2_n3_1 e_n3_1_n3_0" />
    <stop parkingArea="pa_e_ramp1_zip1" duration="5" /><stop parkingArea="pa_e_n3_1_n3_0" duration="100000" /></vehicle>
    <vehicle id="49" depart="34.01" departLane="1" departSpeed="max" departPos="stop">
        <route edges="e_ra_w_ra_s e_ra_s_n1_3 e_n1_3_n2_3 e_n2_3_n3_3 e_n3_3_n4_3 e_n4_3_n5_3 e_n5_3_fringe_e_arterial" />
    <stop parkingArea="pa_e_ra_w_ra_s" duration="5" /></vehicle>
    <vehicle id="50" depart="34.70" departLane="best" departSpeed="max">
        <route edges="e_fringe_e_arterial_n5_3 e_n5_3_n4_3 e_n4_3_n3_3 e_n3_3_n3_4 e_n3_4_n3_5 e_n3_5_fringe_n_collector" />
    </vehicle>
    <vehicle id="51" depart="35.39" departLane="1" departSpeed="max" departPos="stop">
        <route edges="e_n4_3_n4_4 e_n4_4_n3_4 e_n3_4_n3_3 e_n3_3_n3_2 e_n3_2_n3_1 e_n3_1_n4_1" />
    <stop parkingArea="pa_e_n4_3_n4_4" duration="5" /><stop parkingArea="pa_e_n3_1_n4_1" duration="100000" /></vehicle>
    <vehicle id="52" depart="36.09" departLane="1" departSpeed="max" departPos="stop">
        <route edges="e_n1_2_n1_3 e_n1_3_n2_3 e_n2_3_n3_3 e_n3_3_n3_4" />
    <stop parkingArea="pa_e_n1_2_n1_3" duration="5" /><stop parkingArea="pa_e_n3_3_n3_4" duration="100000" /></vehicle>
    <vehicle id="53" depart="36.78" departLane="1" departSpeed="max" departPos="stop">
        <route edges="e_n0_2_n0_1 e_n0_1_n1_1 e_n1_1_n1_2 e_n1_2_n1_3 e_n1_3_n2_3 e_n2_3_n3_3" />
    <stop parkingArea="pa_e_n0_2_n0_1" duration="5" /><stop parkingArea="pa_e_n2_3_n3_3" duration="100000" /></vehicle>
    <vehicle id="54" depart="37.48" departLane="1" departSpeed="max" departPos="stop">
        <route edges="e_n2_5_n2_4 e_n2_4_ra_e e_ra_e_ra_n e_ra_n_n1_5" />
    <stop parkingArea="pa_e_n2_5_n2_4" duration="5" /><stop parkingArea="pa_e_ra_n_n1_5" duration="100000" /></vehicle>
    <vehicle id="55" depart="38.17" departLane="1" departSpeed="max" departPos="stop">
        <route edges="e_n_zip1_n3_2 e_n3_2_n3_1 e_n3_1_n2_1 e_n2_1_n1_1 e_n1_1_n1_0 e_n1_0_n2_0" />
    <stop parkingArea="pa_e_n_zip1_n3_2" duration="5" /><stop parkingArea="pa_e_n1_0_n2_0" duration="100000" /></vehicle>
    <vehicle id="56" depart="38.86" departLane="1" departSpeed="max" departPos="stop">
        <route edges="e_n3_1_n2_1 e_n2_1_n2_2 e_n2_2_n2_3 e_n2_3_n1_3 e_n1_3_n0_3 e_n0_3_fringe_w_arterial" />
    <stop parkingArea="pa_e_n3_1_n2_1" duration="5" /></vehicle>
    <vehicle id="57" depart="39.56" departLane="1" departSpeed="max" departPos="stop">
        <route edges="e_ra_n_n1_5 e_n1_5_n2_5 e_n2_5_n3_5 e_n3_5_n3_4 e_n3_4_n3_3 e_n3_3_n4_3 e_n4_3_n5_3 e_n5_3_fringe_e_arterial" />
    <stop parkingArea="pa_e_ra_n_n1_5" duration="5" /></vehicle>
    <vehicle id="58" depart="40.25" departLane="1" departSpeed="max" departPos="stop">
        <route edges="e_n1_5_n0_5 e_n0_5_n0_4 e_n0_4_n0_3 e_n0_3_n1_3 e_n1_3_n2_3 e_n2_3_n3_3 e_n3_3_n3_4" />
    <stop parkingArea="pa_e_n1_5_n0_5" duration="5" /><stop parkingArea="pa_e_n3_3_n3_4" duration="100000" /></vehicle>
    <vehicle id="59" depart="40.95" departLane="1" departSpeed="max" departPos="stop">
        <route edges="e_n4_0_n4_1 e_n4_1_n3_1 e_n3_1_n2_1 e_n2_1_n1_1 e_n1_1_n0_1 e_n0_1_n0_0" />
    <stop parkingArea="pa_e_n4_0_n4_1" duration="5" /><stop parkingArea="pa_e_n0_1_n0_0" duration="100000" /></vehicle>
    <vehicle id="60" depart="41.64" departLane="1" departSpeed="max" departPos="stop">
        <route edges="e_n5_1_n5_0 e_n5_0_n4_0 e_n4_0_n3_0 e_n3_0_n3_1 e_n3_1_n_zip1" />
    <stop parkingArea="pa_e_n5_1_n5_0" duration="5" /><stop parkingArea="pa_e_n3_1_n_zip1" duration="100000" /></vehicle>
    <vehicle id="61" depart="42.33" departLane="1" departSpeed="max" departPos="stop">
        <route edges="e_n5_1_n5_2 e_n5_2_n4_2 e_n4_2_n3_2 e_n3_2_n3_1 e_n3_1_n3_0" />
    <stop parkingArea="pa_e_n5_1_n5_2" duration="5" /><stop parkingArea="pa_e_n3_1_n3_0" duration="100000" /></vehicle>
    <vehicle id="62" depart="43.03" departLane="best" departSpeed="max">
        <route edges="e_fringe_e_arterial_n5_3 e_n5_3_n4_3 e_n4_3_n3_3 e_n3_3_n2_3 e_n2_3_n1_3 e_n1_3_ra_s e_ra_s_ra_e e_ra_e_ra_n e_ra_n_ra_w e_ra_w_ra_s e_ra_s_n1_3 e_n1_3_n2_3" />
    <stop parkingArea="pa_e_n1_3_n2_3" duration="100000" /></vehicle>
    <vehicle id="63" depart="43.72" departLane="best" departSpeed="max">
        <route edges="e_fringe_n_collector_n3_5 e_n3_5_n3_4 e_n3_4_n3_3 e_n3_3_n3_2 e_n3_2_n3_1 e_n3_1_n_zip1 e_n_zip1_n3_2" />
    <stop parkingArea="pa_e_n_zip1_n3_2" duration="100000" /></vehicle>
    <vehicle id="64" depart="44.42" departLane="1" departSpeed="max" departPos="stop">
        <route edges="e_n_zip1_n3_2 e_n3_2_n4_2 e_n4_2_n5_2 e_n5_2_n5_1 e_n5_1_n4_1" />
    <stop parkingArea="pa_e_n_zip1_n3_2" duration="5" /><stop parkingArea="pa_e_n5_1_n4_1" duration="100000" /></vehicle>
    <vehicle id="66" depart="45.80" departLane="1" departSpeed="max" departPos="stop">
        <route edges="e_n_zip1_n3_2 e_n3_2_n3_3 e_n3_3_n2_3 e_n2_3_n1_3 e_n1_3_ra_s e_ra_s_ra_e e_ra_e_ra_n" />
    <stop parkingArea="pa_e_n_zip1_n3_2" duration="5" /><stop parkingArea="pa_e_ra_e_ra_n" duration="100000" /></vehicle>
    <vehicle id="67" depart="46.50" departLane="1" departSpeed="max" departPos="stop">
        <route edges="e_n0_1_n0_0 e_n0_0_n1_0 e_n1_0_n2_0 e_n2_0_n3_0 e_n3_0_fringe_s_collector" />
    <stop parkingArea="pa_e_n0_1_n0_0" duration="5" /></vehicle>
    <vehicle id="68" depart="47.19" departLane="1" departSpeed="max" departPos="stop">
        <route edges="e_n0_0_n0_1 e_n0_1_n0_2 e_n0_2_n1_2 e_n1_2_n2_2 e_n2_2_n3_2 e_n3_2_n3_1 e_n3_1_n4_1 e_n4_1_n5_1" />
    <stop parkingArea="pa_e_n0_0_n0_1" duration="5" /><stop parkingArea="pa_e_n4_1_n5_1" duration="100000" /></vehicle>
    <vehicle id="71" depart="49.27" departLane="1" departSpeed="max" departPos="stop">
        <route edges="e_n1_2_n1_1 e_n1_1_n0_1 e_n0_1_n0_2 e_n0_2_n0_3 e_n0_3_n1_3 e_n1_3_n2_3 e_n2_3_n3_3 e_n3_3_n4_3 e_n4_3_n5_3 e_n5_3_fringe_e_arterial" />
    <stop parkingArea="pa_e_n1_2_n1_1" duration="5" /></vehicle>
    <vehicle id="72" depart="49.97" departLane="1" departSpeed="max" departPos="stop">
        <route edges="e_n2_4_n2_5 e_n2_5_n3_5 e_n3_5_n3_4 e_n3_4_n3_3 e_n3_3_n2_3 e_n2_3_n1_3 e_n1_3_n0_3 e_n0_3_fringe_w_arterial" />
    <stop parkingArea="pa_e_n2_4_n2_5" duration="5" /></vehicle>
    <vehicle id="73" depart="50.66" departLane="1" departSpeed="max" departPos="stop">
        <route edges="e_n3_3_n3_2 e_n3_2_n4_2 e_n4_2_n4_3 e_n4_3_n4_4 e_n4_4_n4_5 e_n4_5_n3_5 e_n3_5_n3_4" />
    <stop parkingArea="pa_e_n3_3_n3_2" duration="5" /><stop parkingArea="pa_e_n3_5_n3_4" duration="100000" /></vehicle>
    <vehicle id="74" depart="51.36" departLane="1" departSpeed="max" departPos="stop">
        <route edges="e_n0_5_n1_5 e_n1_5_ra_n e_ra_n_ra_w e_ra_w_ra_s e_ra_s_n1_3 e_n1_3_n2_3" />
    <stop parkingArea="pa_e_n0_5_n1_5" duration="5" /><stop parkingArea="pa_e_n1_3_n2_3" duration="100000" /></vehicle>
    <vehicle id="75" depart="52.05" departLane="1" departSpeed="max" departPos="stop">
        <route edges="e_ramp1_zip1 e_n_zip1_n3_2 e_n3_2_n3_3 e_n3_3_n4_3" />
    <stop parkingArea="pa_e_ramp1_zip1" duration="5" /><stop parkingArea="pa_e_n3_3_n4_3" duration="100000" /></vehicle>
    <vehicle id="76" depart="52.74" departLane="1" departSpeed="max" departPos="stop">
        <route edges="e_n2_4_ra_e e_ra_e_ra_n e_ra_n_ra_w e_ra_w_ra_s e_ra_s_n1_3 e_n1_3_n2_3 e_n2_3_n3_3 e_n3_3_n3_2 e_n3_2_n3_1 e_n3_1_n2_1" />
    <stop parkingArea="pa_e_n2_4_ra_e" duration="5" /><stop parkingArea="pa_e_n3_1_n2_1" duration="100000" /></vehicle>
    <vehicle id="77" depart="53.44" departLane="1" departSpeed="max" departPos="stop">
        <route edges="e_n0_2_n0_3 e_n0_3_n1_3" />
    <stop parkingArea="pa_e_n0_2_n0_3" duration="5" /><stop parkingArea="pa_e_n0_3_n1_3" duration="100000" /></vehicle>
    <vehicle id="78" depart="54.13" departLane="1" departSpeed="max" departPos="stop">
        <route edges="e_n2_0_n3_0 e_n3_0_n3_1 e_n3_1_n_zip1 e_n_zip1_n3_2 e_n3_2_n3_3" />
    <stop parkingArea="pa_e_n2_0_n3_0" duration="5" /><stop parkingArea="pa_e_n3_2_n3_3" duration="100000" /></vehicle>
    <vehicle id="79" depart="54.83" departLane="1" departSpeed="max" departPos="stop">
        <route edges="e_n1_1_n0_1 e_n0_1_n0_2 e_n0_2_n0_3 e_n0_3_n0_4" />
    <stop parkingArea="pa_e_n1_1_n0_1" duration="5" /><stop parkingArea="pa_e_n0_3_n0_4" duration="100000" /></vehicle>
    <vehicle id="80" depart="55.52" departLane="1" departSpeed="max" departPos="stop">
        <route edges="e_n0_0_n0_1 e_n0_1_n0_2 e_n0_2_n0_3 e_n0_3_n1_3 e_n1_3_n2_3 e_n2_3_n3_3 e_n3_3_n3_2" />
    <stop parkingArea="pa_e_n0_0_n0_1" duration="5" /><stop parkingArea="pa_e_n3_3_n3_2" duration="100000" /></vehicle>
    <vehicle id="81" depart="56.21" departLane="1" departSpeed="max" departPos="stop">
        <route edges="e_n1_1_n0_1 e_n0_1_n0_2 e_n0_2_n0_3 e_n0_3_n1_3 e_n1_3_n2_3 e_n2_3_n3_3 e_n3_3_n4_3 e_n4_3_n5_3 e_n5_3_n5_4" />
    <stop parkingArea="pa_e_n1_1_n0_1" duration="5" /><stop parkingArea="pa_e_n5_3_n5_4" duration="100000" /></vehicle>
    <vehicle id="83" depart="57.60" departLane="1" departSpeed="max" departPos="stop">
        <route edges="e_n1_1_n1_0 e_n1_0_n2_0 e_n2_0_n2_1 e_n2_1_n2_2 e_n2_2_n2_3 e_n2_3_n2_4 e_n2_4_n3_4 e_n3_4_n3_3" />
    <stop parkingArea="pa_e_n1_1_n1_0" duration="5" /><stop parkingArea="pa_e_n3_4_n3_3" duration="100000" /></vehicle>
    <vehicle id="85" depart="58.99" departLane="1" departSpeed="max" departPos="stop">
        <route edges="e_ra_s_n1_3 e_n1_3_n2_3 e_n2_3_n3_3 e_n3_3_n3_2 e_n3_2_n3_1" />
    <stop parkingArea="pa_e_ra_s_n1_3" duration="5" /><stop parkingArea="pa_e_n3_2_n3_1" duration="100000" /></vehicle>
    <vehicle id="88" depart="61.07" departLane="1" departSpeed="max" departPos="stop">
        <route edges="e_n0_1_n0_2 e_n0_2_n0_3 e_n0_3_n1_3 e_n1_3_n2_3 e_n2_3_n3_3" />
    <stop parkingArea="pa_e_n0_1_n0_2" duration="5" /><stop parkingArea="pa_e_n2_3_n3_3" duration="100000" /></vehicle>
    <vehicle id="89" depart="61.77" departLane="1" departSpeed="max" departPos="stop">
        <route edges="e_n2_4_n2_5 e_n2_5_n3_5 e_n3_5_n3_4 e_n3_4_n3_3 e_n3_3_n3_2 e_n3_2_n3_1 e_n3_1_n3_0 e_n3_0_fringe_s_collector" />
    <stop parkingArea="pa_e_n2_4_n2_5" duration="5" /></vehicle>
    <vehicle id="90" depart="62.46" departLane="1" departSpeed="max" departPos="stop">
        <route edges="e_n4_5_n5_5 e_n5_5_n5_4 e_n5_4_n4_4 e_n4_4_n3_4 e_n3_4_n3_3" />
    <stop parkingArea="pa_e_n4_5_n5_5" duration="5" /><stop parkingArea="pa_e_n3_4_n3_3" duration="100000" /></vehicle>
    <vehicle id="92" depart="63.85" departLane="1" departSpeed="max" departPos="stop">
        <route edges="e_n2_3_n2_2 e_n2_2_n3_2 e_n3_2_n3_3 e_n3_3_n2_3 e_n2_3_n1_3 e_n1_3_ra_s" />
    <stop parkingArea="pa_e_n2_3_n2_2" duration="5" /><stop parkingArea="pa_e_n1_3_ra_s" duration="100000" /></vehicle>
    <vehicle id="93" depart="64.54" departLane="1" departSpeed="max" departPos="stop">
        <route edges="e_n5_5_n4_5 e_n4_5_n3_5 e_n3_5_n3_4 e_n3_4_n3_3 e_n3_3_n2_3 e_n2_3_n1_3 e_n1_3_n0_3 e_n0_3_n0_4 e_n0_4_n0_5" />
    <stop parkingArea="pa_e_n5_5_n4_5" duration="5" /><stop parkingArea="pa_e_n0_4_n0_5" duration="100000" /></vehicle>
    <vehicle id="94" depart="65.24" departLane="1" departSpeed="max" departPos="stop">
        <route edges="e_n0_5_n0_4 e_n0_4_ra_w e_ra_w_ra_s e_ra_s_ra_e e_ra_e_n2_4 e_n2_4_n2_5" />
    <stop parkingArea="pa_e_n0_5_n0_4" duration="5" /><stop parkingArea="pa_e_n2_4_n2_5" duration="100000" /></vehicle>
    <vehicle id="95" depart="65.93" departLane="1" departSpeed="max" departPos="stop">
        <route edges="e_n2_4_n2_5 e_n2_5_n3_5 e_n3_5_n3_4 e_n3_4_n3_3 e_n3_3_n2_3 e_n2_3_n1_3 e_n1_3_n0_3 e_n0_3_n0_2 e_n0_2_n1_2 e_n1_2_n1_3" />
    <stop parkingArea="pa_e_n2_4_n2_5" duration="5" /><stop parkingArea="pa_e_n1_2_n1_3" duration="100000" /></vehicle>
    <vehicle id="96" depart="66.62" departLane="1" departSpeed="max" departPos="stop">
        <route edges="e_n1_1_n1_2 e_n1_2_n2_2 e_n2_2_ramp1 e_ramp1_zip1 e_n_zip1_n3_2" />
    <stop parkingArea="pa_e_n1_1_n1_2" duration="5" /><stop parkingArea="pa_e_n_zip1_n3_2" duration="100000" /></vehicle>
    <vehicle id="97" depart="67.32" departLane="1" departSpeed="max" departPos="stop">
        <route edges="e_n2_5_n1_5 e_n1_5_ra_n e_ra_n_ra_w e_ra_w_ra_s e_ra_s_n1_3 e_n1_3_n2_3 e_n2_3_n3_3 e_n3_3_n4_3 e_n4_3_n5_3 e_n5_3_fringe_e_arterial" />
    <stop parkingArea="pa_e_n2_5_n1_5" duration="5" /></vehicle>
    <vehicle id="99" depart="68.71" departLane="1" departSpeed="max" departPos="stop">
        <route edges="e_ramp1_zip1 e_n_zip1_n3_2 e_n3_2_n3_1 e_n3_1_n4_1 e_n4_1_n5_1 e_n5_1_n5_2" />
    <stop parkingArea="pa_e_ramp1_zip1" duration="5" /><stop parkingArea="pa_e_n5_1_n5_2" duration="100000" /></vehicle>
    <vehicle id="100" depart="69.40" departLane="1" departSpeed="max" departPos="stop">
        <route edges="e_ra_w_n0_4 e_n0_4_n0_3 e_n0_3_n1_3 e_n1_3_n2_3 e_n2_3_n2_2 e_n2_2_ramp1 e_ramp1_zip1 e_n_zip1_n3_2" />
    <stop parkingArea="pa_e_ra_w_n0_4" duration="5" /><stop parkingArea="pa_e_n_zip1_n3_2" duration="100000" /></vehicle>
    <vehicle id="101" depart="70.09" departLane="1" departSpeed="max" departPos="stop">
        <route edges="e_n5_4_n5_5 e_n5_5_n4_5 e_n4_5_n3_5 e_n3_5_n3_4 e_n3_4_n3_3 e_n3_3_n2_3 e_n2_3_n1_3 e_n1_3_n1_2 e_n1_2_n0_2 e_n0_2_n0_3" />
    <stop parkingArea="pa_e_n5_4_n5_5" duration="5" /><stop parkingArea="pa_e_n0_2_n0_3" duration="100000" /></vehicle>
    <vehicle id="102" depart="70.79" departLane="1" departSpeed="max" departPos="stop">
        <route edges="e_n3_0_n2_0 e_n2_0_n2_1 e_n2_1_n2_2 e_n2_2_n2_3 e_n2_3_n1_3 e_n1_3_n0_3 e_n0_3_fringe_w_arterial" />
    <stop parkingArea="pa_e_n3_0_n2_0" duration="5" /></vehicle>
    <vehicle id="104" depart="72.18" departLane="1" departSpeed="max" departPos="stop">
        <route edges="e_n2_2_n2_3 e_n2_3_n1_3 e_n1_3_ra_s e_ra_s_ra_e e_ra_e_ra_n e_ra_n_ra_w e_ra_w_n0_4" />
    <stop parkingArea="pa_e_n2_2_n2_3" duration="5" /><stop parkingArea="pa_e_ra_w_n0_4" duration="100000" /></vehicle>
    <vehicle id="105" depart="72.87" departLane="1" departSpeed="max" departPos="stop">
        <route edges="e_n1_2_n1_1 e_n1_1_n1_0 e_n1_0_n2_0 e_n2_0_n3_0 e_n3_0_n3_1 e_n3_1_n_zip1 e_n_zip1_n3_2 e_n3_2_n4_2 e_n4_2_n4_3 e_n4_3_n3_3" />
    <stop parkingArea="pa_e_n1_2_n1_1" duration="5" /><stop parkingArea="pa_e_n4_3_n3_3" duration="100000" /></vehicle>
    <vehicle id="106" depart="73.56" departLane="1" departSpeed="max" departPos="stop">
        <route edges="e_n2_5_n3_5 e_n3_5_n3_4 e_n3_4_n2_4 e_n2_4_n2_3 e_n2_3_n3_3" />
    <stop parkingArea="pa_e_n2_5_n3_5" duration="5" /><stop parkingArea="pa_e_n2_3_n3_3" duration="100000" /></vehicle>
    <vehicle id="107" depart="74.26" departLane="1" departSpeed="max" departPos="stop">
        <route edges="e_ra_s_ra_e e_ra_e_n2_4 e_n2_4_n2_3 e_n2_3_n2_2 e_n2_2_ramp1 e_ramp1_zip1" />
    <stop parkingArea="pa_e_ra_s_ra_e" duration="5" /><stop parkingArea="pa_e_ramp1_zip1" duration="100000" /></vehicle>
    <vehicle id="108" depart="74.95" departLane="1" departSpeed="max" departPos="stop">
        <route edges="e_n3_4_n4_4 e_n4_4_n4_5 e_n4_5_n3_5 e_n3_5_fringe_n_collector" />
    <stop parkingArea="pa_e_n3_4_n4_4" duration="5" /></vehicle>
    <vehicle id="109" depart="75.65" departLane="1" departSpeed="max" departPos="stop">
        <route edges="e_n0_3_n0_4 e_n0_4_ra_w e_ra_w_ra_s e_ra_s_n1_3 e_n1_3_n0_3" />
    <stop parkingArea="pa_e_n0_3_n0_4" duration="5" /><stop parkingArea="pa_e_n1_3_n0_3" duration="100000" /></vehicle>
    <vehicle id="110" depart="76.34" departLane="1" departSpeed="max" departPos="stop">
        <route edges="e_ra_w_n0_4 e_n0_4_n0_3 e_n0_3_n1_3 e_n1_3_n2_3 e_n2_3_n2_2 e_n2_2_n3_2 e_n3_2_n3_3" />
    <stop parkingArea="pa_e_ra_w_n0_4" duration="5" /><stop parkingArea="pa_e_n3_2_n3_3" duration="100000" /></vehicle>
    <vehicle id="111" depart="77.03" departLane="1" departSpeed="max" departPos="stop">
        <route edges="e_n3_3_n4_3 e_n4_3_n4_2 e_n4_2_n3_2 e_n3_2_n3_1 e_n3_1_n3_0 e_n3_0_n4_0 e_n4_0_n4_1" />
    <stop parkingArea="pa_e_n3_3_n4_3" duration="5" /><stop parkingArea="pa_e_n4_0_n4_1" duration="100000" /></vehicle>
    <vehicle id="112" depart="77.73" departLane="best" departSpeed="max">
        <route edges="e_fringe_w_arterial_n0_3 e_n0_3_n1_3 e_n1_3_n2_3 e_n2_3_n2_2 e_n2_2_n3_2 e_n3_2_n3_3" />
    <stop parkingArea="pa_e_n3_2_n3_3" duration="100000" /></vehicle>
    <vehicle id="113" depart="78.42" departLane="1" departSpeed="max" departPos="stop">
        <route edges="e_n3_1_n2_1 e_n2_1_n2_2 e_n2_2_n2_3 e_n2_3_n3_3 e_n3_3_n4_3 e_n4_3_n5_3 e_n5_3_fringe_e_arterial" />
    <stop parkingArea="pa_e_n3_1_n2_1" duration="5" /></vehicle>
    <vehicle id="114" depart="79.12" departLane="1" departSpeed="max" departPos="stop">
        <route edges="e_n0_3_n1_3 e_n1_3_ra_s e_ra_s_ra_e e_ra_e_ra_n e_ra_n_ra_w" />
    <stop parkingArea="pa_e_n0_3_n1_3" duration="5" /><stop parkingArea="pa_e_ra_n_ra_w" duration="100000" /></vehicle>
    <vehicle id="115" depart="79.81" departLane="1" departSpeed="max" departPos="stop">
        <route edges="e_n0_0_n1_0 e_n1_0_n1_1 e_n1_1_n1_2 e_n1_2_n1_3 e_n1_3_n0_3 e_n0_3_fringe_w_arterial" />
    <stop parkingArea="pa_e_n0_0_n1_0" duration="5" /></vehicle>
    <vehicle id="116" depart="80.50" departLane="1" departSpeed="max" departPos="stop">
        <route edges="e_n3_5_n4_5 e_n4_5_n4_4 e_n4_4_n3_4 e_n3_4_n3_3" />
    <stop parkingArea="pa_e_n3_5_n4_5" duration="5" /><stop parkingArea="pa_e_n3_4_n3_3" duration="100000" /></vehicle>
    <vehicle id="118" depart="81.89" departLane="1" departSpeed="max" departPos="stop">
        <route edges="e_ra_e_ra_n e_ra_n_ra_w e_ra_w_n0_4 e_n0_4_n0_5" />
    <stop parkingArea="pa_e_ra_e_ra_n" duration="5" /><stop parkingArea="pa_e_n0_4_n0_5" duration="100000" /></vehicle>
    <vehicle id="119" depart="82.59" departLane="1" departSpeed="max" departPos="stop">
        <route edges="e_n3_5_n4_5 e_n4_5_n4_4 e_n4_4_n4_3 e_n4_3_n3_3 e_n3_3_n3_2" />
    <stop parkingArea="pa_e_n3_5_n4_5" duration="5" /><stop parkingArea="pa_e_n3_3_n3_2" duration="100000" /></vehicle>
    <vehicle id="120" depart="83.28" departLane="1" departSpeed="max" departPos="stop">
        <route edges="e_n2_4_n2_5 e_n2_5_n3_5 e_n3_5_n3_4 e_n3_4_n3_3 e_n3_3_n3_2 e_n3_2_n3_1 e_n3_1_n_zip1 e_n_zip1_n3_2 e_n3_2_n3_3" />
    <stop parkingArea="pa_e_n2_4_n2_5" duration="5" /><stop parkingArea="pa_e_n3_2_n3_3" duration="100000" /></vehicle>
    <vehicle id="121" depart="83.97" departLane="1" departSpeed="max" departPos="stop">