<?xml version='1.0' encoding='UTF-8'?>
<additional><parkingArea id="pa_e_n0_0_n0_1" lane="e_n0_0_n0_1_1" startPos="2.00" endPos="175.55" friendlyPos="true" roadsideCapacity="59" /><parkingArea id="pa_e_n0_0_n1_0" lane="e_n0_0_n1_0_1" startPos="2.00" endPos="175.55" friendlyPos="true" roadsideCapacity="59" /><parkingArea id="pa_e_n0_1_n0_0" lane="e_n0_1_n0_0_1" startPos="2.00" endPos="175.55" friendlyPos="true" roadsideCapacity="52" /><parkingArea id="pa_e_n0_1_n0_2" lane="e_n0_1_n0_2_1" startPos="2.00" endPos="183.60" friendlyPos="true" roadsideCapacity="76" /><parkingArea id="pa_e_n0_1_n1_1" lane="e_n0_1_n1_1_1" startPos="2.00" endPos="175.55" friendlyPos="true" roadsideCapacity="48" /><parkingArea id="pa_e_n0_2_n0_1" lane="e_n0_2_n0_1_1" startPos="2.00" endPos="183.60" friendlyPos="true" roadsideCapacity="58" /><parkingArea id="pa_e_n0_2_n0_3" lane="e_n0_2_n0_3_1" startPos="2.00" endPos="175.70" friendlyPos="true" roadsideCapacity="51" /><parkingArea id="pa_e_n0_2_n1_2" lane="e_n0_2_n1_2_1" startPos="2.00" endPos="183.60" friendlyPos="true" roadsideCapacity="53" /><parkingArea id="pa_e_n0_3_n0_2" lane="e_n0_3_n0_2_1" startPos="2.00" endPos="175.70" friendlyPos="true" roadsideCapacity="56" /><parkingArea id="pa_e_n0_3_n0_4" lane="e_n0_3_n0_4_1" startPos="2.00" endPos="175.70" friendlyPos="true" roadsideCapacity="64" /><parkingArea id="pa_e_n0_3_n1_3" lane="e_n0_3_n1_3_1" startPos="2.00" endPos="184.60" friendlyPos="true" roadsideCapacity="69" /><parkingArea id="pa_e_n0_4_n0_3" lane="e_n0_4_n0_3_1" startPos="2.00" endPos="175.70" friendlyPos="true" roadsideCapacity="50" /><parkingArea id="pa_e_n0_4_n0_5" lane="e_n0_4_n0_5_1" startPos="2.00" endPos="185.60" friendlyPos="true" roadsideCapacity="60" /><parkingArea id="pa_e_n0_4_ra_w" lane="e_n0_4_ra_w_1" startPos="2.00" endPos="172.15" friendlyPos="true" roadsideCapacity="58" /><parkingArea id="pa_e_n0_5_n0_4" lane="e_n0_5_n0_4_1" startPos="2.00" endPos="185.60" friendlyPos="true" roadsideCapacity="45" /><parkingArea id="pa_e_n0_5_n1_5" lane="e_n0_5_n1_5_1" startPos="2.00" endPos="185.60" friendlyPos="true" roadsideCapacity="42" /><parkingArea id="pa_e_n1_0_n0_0" lane="e_n1_0_n0_0_1" startPos="2.00" endPos="175.55" friendlyPos="true" roadsideCapacity="41" /><parkingArea id="pa_e_n1_0_n1_1" lane="e_n1_0_n1_1_1" startPos="2.00" endPos="175.55" friendlyPos="true" roadsideCapacity="36" /><parkingArea id="pa_e_n1_0_n2_0" lane="e_n1_0_n2_0_1" startPos="2.00" endPos="183.60" friendlyPos="true" roadsideCapacity="48" /><parkingArea id="pa_e_n1_1_n0_1" lane="e_n1_1_n0_1_1" startPos="2.00" endPos="175.55" friendlyPos="true" roadsideCapacity="37" /><parkingArea id="pa_e_n1_1_n1_0" lane="e_n1_1_n1_0_1" startPos="2.00" endPos="175.55" friendlyPos="true" roadsideCapacity="44" /><parkingArea id="pa_e_n1_1_n1_2" lane="e_n1_1_n1_2_1" startPos="2.00" endPos="177.20" friendlyPos="true" roadsideCapacity="54" /><parkingArea id="pa_e_n1_2_n0_2" lane="e_n1_2_n0_2_1" startPos="2.00" endPos="183.60" friendlyPos="true" roadsideCapacity="32" /><parkingArea id="pa_e_n1_2_n1_1" lane="e_n1_2_n1_1_1" startPos="2.00" endPos="177.20" friendlyPos="true" roadsideCapacity="49" /><parkingArea id="pa_e_n1_2_n1_3" lane="e_n1_2_n1_3_1" startPos="2.00" endPos="175.70" friendlyPos="true" roadsideCapacity="50" /><parkingArea id="pa_e_n1_2_n2_2" lane="e_n1_2_n2_2_1" startPos="2.00" endPos="183.60" friendlyPos="true" roadsideCapacity="55" /><parkingArea id="pa_e_n1_3_n0_3" lane="e_n1_3_n0_3_1" startPos="2.00" endPos="184.60" friendlyPos="true" roadsideCapacity="104" /><parkingArea id="pa_e_n1_3_n1_2" lane="e_n1_3_n1_2_1" startPos="2.00" endPos="175.70" friendlyPos="true" roadsideCapacity="42" /><parkingArea id="pa_e_n1_3_n2_3" lane="e_n1_3_n2_3_1" startPos="2.00" endPos="184.60" friendlyPos="true" roadsideCapacity="134" /><parkingArea id="pa_e_n1_3_ra_s" lane="e_n1_3_ra_s_1" startPos="2.00" endPos="164.25" friendlyPos="true" roadsideCapacity="80" /><parkingArea id="pa_e_n1_5_n0_5" lane="e_n1_5_n0_5_1" startPos="2.00" endPos="185.60" friendlyPos="true" roadsideCapacity="53" /><parkingArea id="pa_e_n1_5_n2_5" lane="e_n1_5_n2_5_1" startPos="2.00" endPos="183.60" friendlyPos="true" roadsideCapacity="56" /><parkingArea id="pa_e_n1_5_ra_n" lane="e_n1_5_ra_n_1" startPos="2.00" endPos="172.15" friendlyPos="true" roadsideCapacity="58" /><parkingArea id="pa_e_n2_0_n1_0" lane="e_n2_0_n1_0_1" startPos="2.00" endPos="183.60" friendlyPos="true" roadsideCapacity="60" /><parkingArea id="pa_e_n2_0_n2_1" lane="e_n2_0_n2_1_1" startPos="2.00" endPos="183.60" friendlyPos="true" roadsideCapacity="44" /><parkingArea id="pa_e_n2_0_n3_0" lane="e_n2_0_n3_0_1" startPos="2.00" endPos="180.40" friendlyPos="true" roadsideCapacity="54" /><parkingArea id="pa_e_n2_1_n1_1" lane="e_n2_1_n1_1_1" startPos="2.00" endPos="183.60" friendlyPos="true" roadsideCapacity="45" /><parkingArea id="pa_e_n2_1_n2_0" lane="e_n2_1_n2_0_1" startPos="2.00" endPos="183.60" friendlyPos="true" roadsideCapacity="35" /><parkingArea id="pa_e_n2_1_n2_2" lane="e_n2_1_n2_2_1" startPos="2.00" endPos="173.05" friendlyPos="true" roadsideCapacity="42" /><parkingArea id="pa_e_n2_1_n3_1" lane="e_n2_1_n3_1_1" startPos="2.00" endPos="180.40" friendlyPos="true" roadsideCapacity="38" /><parkingArea id="pa_e_n2_2_n2_1" lane="e_n2_2_n2_1_1" startPos="2.00" endPos="173.05" friendlyPos="true" roadsideCapacity="58" /><parkingArea id="pa_e_n2_2_n2_3" lane="e_n2_2_n2_3_1" startPos="2.00" endPos="175.70" friendlyPos="true" roadsideCapacity="58" /><parkingArea id="pa_e_n2_2_n3_2" lane="e_n2_2_n3_2_1" startPos="2.00" endPos="180.40" friendlyPos="true" roadsideCapacity="47" /><parkingArea id="pa_e_n2_2_ramp1" lane="e_n2_2_ramp1_1" startPos="2.00" endPos="124.87" friendlyPos="true" roadsideCapacity="53" /><parkingArea id="pa_e_n2_3_n1_3" lane="e_n2_3_n1_3_1" startPos="2.00" endPos="184.60" friendlyPos="true" roadsideCapacity="114" /><parkingArea id="pa_e_n2_3_n2_2" lane="e_n2_3_n2_2_1" startPos="2.00" endPos="175.70" friendlyPos="true" roadsideCapacity="51" /><parkingArea id="pa_e_n2_3_n2_4" lane="e_n2_3_n2_4_1" startPos="2.00" endPos="175.70" friendlyPos="true" roadsideCapacity="45" /><parkingArea id="pa_e_n2_3_n3_3" lane="e_n2_3_n3_3_1" startPos="2.00" endPos="181.40" friendlyPos="true" roadsideCapacity="92" /><parkingArea id="pa_e_n2_4_n2_3" lane="e_n2_4_n2_3_1" startPos="2.00" endPos="175.70" friendlyPos="true" roadsideCapacity="59" /><parkingArea id="pa_e_n2_4_n2_5" lane="e_n2_4_n2_5_1" startPos="2.00" endPos="183.60" friendlyPos="true" roadsideCapacity="46" /><parkingArea id="pa_e_n2_4_n3_4" lane="e_n2_4_n3_4_1" startPos="2.00" endPos="180.40" friendlyPos="true" roadsideCapacity="42" /><parkingArea id="pa_e_n2_4_ra_e" lane="e_n2_4_ra_e_1" startPos="2.00" endPos="172.15" friendlyPos="true" roadsideCapacity="60" /><parkingArea id="pa_e_n2_5_n1_5" lane="e_n2_5_n1_5_1" startPos="2.00" endPos="183.60" friendlyPos="true" roadsideCapacity="47" /><parkingArea id="pa_e_n2_5_n2_4" lane="e_n2_5_n2_4_1" startPos="2.00" endPos="183.60" friendlyPos="true" roadsideCapacity="36" /><parkingArea id="pa_e_n2_5_n3_5" lane="e_n2_5_n3_5_1" startPos="2.00" endPos="180.40" friendlyPos="true" roadsideCapacity="55" /><parkingArea id="pa_e_n3_0_n2_0" lane="e_n3_0_n2_0_1" startPos="2.00" endPos="180.40" friendlyPos="true" roadsideCapacity="55" /><parkingArea id="pa_e_n3_0_n3_1" lane="e_n3_0_n3_1_1" startPos="2.00" endPos="183.60" friendlyPos="true" roadsideCapacity="88" /><parkingArea id="pa_e_n3_0_n4_0" lane="e_n3_0_n4_0_1" startPos="2.00" endPos="180.40" friendlyPos="true" roadsideCapacity="48" /><parkingArea id="pa_e_n3_1_n2_1" lane="e_n3_1_n2_1_1" startPos="2.00" endPos="180.40" friendlyPos="true" roadsideCapacity="53" /><parkingArea id="pa_e_n3_1_n3_0" lane="e_n3_1_n3_0_1" startPos="2.00" endPos="183.60" friendlyPos="true" roadsideCapacity="66" /><parkingArea id="pa_e_n3_1_n4_1" lane="e_n3_1_n4_1_1" startPos="2.00" endPos="180.40" friendlyPos="true" roadsideCapacity="46" /><parkingArea id="pa_e_n3_1_n_zip1" lane="e_n3_1_n_zip1_1" startPos="2.00" endPos="81.63" friendlyPos="true" roadsideCapacity="106" /><parkingArea id="pa_e_n3_2_n2_2" lane="e_n3_2_n2_2_1" startPos="2.00" endPos="180.40" friendlyPos="true" roadsideCapacity="39" /><parkingArea id="pa_e_n3_2_n3_1" lane="e_n3_2_n3_1_1" startPos="2.00" endPos="184.37" friendlyPos="true" roadsideCapacity="93" /><parkingArea id="pa_e_n3_2_n3_3" lane="e_n3_2_n3_3_1" startPos="2.00" endPos="175.70" friendlyPos="true" roadsideCapacity="95" /><parkingArea id="pa_e_n3_2_n4_2" lane="e_n3_2_n4_2_1" startPos="2.00" endPos="180.40" friendlyPos="true" roadsideCapacity="41" /><parkingArea id="pa_e_n3_3_n2_3" lane="e_n3_3_n2_3_1" startPos="2.00" endPos="181.40" friendlyPos="true" roadsideCapacity="114" /><parkingArea id="pa_e_n3_3_n3_2" lane="e_n3_3_n3_2_1" startPos="2.00" endPos="175.70" friendlyPos="true" roadsideCapacity="86" /><parkingArea id="pa_e_n3_3_n3_4" lane="e_n3_3_n3_4_1" startPos="2.00" endPos="175.70" friendlyPos="true" roadsideCapacity="64" /><parkingArea id="pa_e_n3_3_n4_3" lane="e_n3_3_n4_3_1" startPos="2.00" endPos="181.40" friendlyPos="true" roadsideCapacity="91" /><parkingArea id="pa_e_n3_4_n2_4" lane="e_n3_4_n2_4_1" startPos="2.00" endPos="180.40" friendlyPos="true" roadsideCapacity="28" /><parkingArea id="pa_e_n3_4_n3_3" lane="e_n3_4_n3_3_1" startPos="2.00" endPos="175.70" friendlyPos="true" roadsideCapacity="52" /><parkingArea id="pa_e_n3_4_n3_5" lane="e_n3_4_n3_5_1" startPos="2.00" endPos="183.60" friendlyPos="true" roadsideCapacity="73" /><parkingArea id="pa_e_n3_4_n4_4" lane="e_n3_4_n4_4_1" startPos="2.00" endPos="180.40" friendlyPos="true" roadsideCapacity="35" /><parkingArea id="pa_e_n3_5_n2_5" lane="e_n3_5_n2_5_1" startPos="2.00" endPos="180.40" friendlyPos="true" roadsideCapacity="46" /><parkingArea id="pa_e_n3_5_n3_4" lane="e_n3_5_n3_4_1" startPos="2.00" endPos="183.60" friendlyPos="true" roadsideCapacity="71" /><parkingArea id="pa_e_n3_5_n4_5" lane="e_n3_5_n4_5_1" startPos="2.00" endPos="180.40" friendlyPos="true" roadsideCapacity="53" /><parkingArea id="pa_e_n4_0_n3_0" lane="e_n4_0_n3_0_1" startPos="2.00" endPos="180.40" friendlyPos="true" roadsideCapacity="56" /><parkingArea id="pa_e_n4_0_n4_1" lane="e_n4_0_n4_1_1" startPos="2.00" endPos="183.60" friendlyPos="true" roadsideCapacity="34" /><parkingArea id="pa_e_n4_0_n5_0" lane="e_n4_0_n5_0_1" startPos="2.00" endPos="185.60" friendlyPos="true" roadsideCapacity="58" /><parkingArea id="pa_e_n4_1_n3_1" lane="e_n4_1_n3_1_1" startPos="2.00" endPos="180.40" friendlyPos="true" roadsideCapacity="40" /><parkingArea id="pa_e_n4_1_n4_0" lane="e_n4_1_n4_0_1" startPos="2.00" endPos="183.60" friendlyPos="true" roadsideCapacity="39" /><parkingArea id="pa_e_n4_1_n4_2" lane="e_n4_1_n4_2_1" startPos="2.00" endPos="183.60" friendlyPos="true" roadsideCapacity="34" /><parkingArea id="pa_e_n4_1_n5_1" lane="e_n4_1_n5_1_1" startPos="2.00" endPos="183.60" friendlyPos="true" roadsideCapacity="45" /><parkingArea id="pa_e_n4_2_n3_2" lane="e_n4_2_n3_2_1" startPos="2.00" endPos="180.40" friendlyPos="true" roadsideCapacity="43" /><parkingArea id="pa_e_n4_2_n4_1" lane="e_n4_2_n4_1_1" startPos="2.00" endPos="183.60" friendlyPos="true" roadsideCapacity="54" /><parkingArea id="pa_e_n4_2_n4_3" lane="e_n4_2_n4_3_1" startPos="2.00" endPos="175.70" friendlyPos="true" roadsideCapacity="63" /><parkingArea id="pa_e_n4_2_n5_2" lane="e_n4_2_n5_2_1" startPos="2.00" endPos="183.60" friendlyPos="true" roadsideCapacity="33" /><parkingArea id="pa_e_n4_3_n3_3" lane="e_n4_3_n3_3_1" startPos="2.00" endPos="181.40" friendlyPos="true" roadsideCapacity="85" /><parkingArea id="pa_e_n4_3_n4_2" lane="e_n4_3_n4_2_1" startPos="2.00" endPos="175.70" friendlyPos="true" roadsideCapacity="58" /><parkingArea id="pa_e_n4_3_n4_4" lane="e_n4_3_n4_4_1" startPos="2.00" endPos="175.70" friendlyPos="true" roadsideCapacity="38" /><parkingArea id="pa_e_n4_3_n5_3" lane="e_n4_3_n5_3_1" startPos="2.00" endPos="184.60" friendlyPos="true" roadsideCapacity="85" /><parkingArea id="pa_e_n4_4_n3_4" lane="e_n4_4_n3_4_1" startPos="2.00" endPos="180.40" friendlyPos="true" roadsideCapacity="35" /><parkingArea id="pa_e_n4_4_n4_3" lane="e_n4_4_n4_3_1" startPos="2.00" endPos="175.70" friendlyPos="true" roadsideCapacity="53" /><parkingArea id="pa_e_n4_4_n4_5" lane="e_n4_4_n4_5_1" startPos="2.00" endPos="183.60" friendlyPos="true" roadsideCapacity="42" /><parkingArea id="pa_e_n4_4_n5_4" lane="e_n4_4_n5_4_1" startPos="2.00" endPos="183.60" friendlyPos="true" roadsideCapacity="41" /><parkingArea id="pa_e_n4_5_n3_5" lane="e_n4_5_n3_5_1" startPos="2.00" endPos="180.40" friendlyPos="true" roadsideCapacity="43" /><parkingArea id="pa_e_n4_5_n4_4" lane="e_n4_5_n4_4_1" startPos="2.00" endPos="183.60" friendlyPos="true" roadsideCapacity="48" /><parkingArea id="pa_e_n4_5_n5_5" lane="e_n4_5_n5_5_1" startPos="2.00" endPos="185.60" friendlyPos="true" roadsideCapacity="43" /><parkingArea id="pa_e_n5_0_n4_0" lane="e_n5_0_n4_0_1" startPos="2.00" endPos="185.60" friendlyPos="true" roadsideCapacity="55" /><parkingArea id="pa_e_n5_0_n5_1" lane="e_n5_0_n5_1_1" startPos="2.00" endPos="185.60" friendlyPos="true" roadsideCapacity="66" /><parkingArea id="pa_e_n5_1_n4_1" lane="e_n5_1_n4_1_1" startPos="2.00" endPos="183.60" friendlyPos="true" roadsideCapacity="40" /><parkingArea id="pa_e_n5_1_n5_0" lane="e_n5_1_n5_0_1" startPos="2.00" endPos="185.60" friendlyPos="true" roadsideCapacity="45" /><parkingArea id="pa_e_n5_1_n5_2" lane="e_n5_1_n5_2_1" startPos="2.00" endPos="183.60" friendlyPos="true" roadsideCapacity="35" /><parkingArea id="pa_e_n5_2_n4_2" lane="e_n5_2_n4_2_1" startPos="2.00" endPos="183.60" friendlyPos="true" roadsideCapacity="48" /><parkingArea id="pa_e_n5_2_n5_1" lane="e_n5_2_n5_1_1" startPos="2.00" endPos="183.60" friendlyPos="true" roadsideCapacity="48" /><parkingArea id="pa_e_n5_2_n5_3" lane="e_n5_2_n5_3_1" startPos="2.00" endPos="178.90" friendlyPos="true" roadsideCapacity="50" /><parkingArea id="pa_e_n5_3_n4_3" lane="e_n5_3_n4_3_1" startPos="2.00" endPos="184.60" friendlyPos="true" roadsideCapacity="64" /><parkingArea id="pa_e_n5_3_n5_2" lane="e_n5_3_n5_2_1" startPos="2.00" endPos="178.90" friendlyPos="true" roadsideCapacity="57" /><parkingArea id="pa_e_n5_3_n5_4" lane="e_n5_3_n5_4_1" startPos="2.00" endPos="178.90" friendlyPos="true" roadsideCapacity="51" /><parkingArea id="pa_e_n5_4_n4_4" lane="e_n5_4_n4_4_1" startPos="2.00" endPos="183.60" friendlyPos="true" roadsideCapacity="37" /><parkingArea id="pa_e_n5_4_n5_3" lane="e_n5_4_n5_3_1" startPos="2.00" endPos="178.90" friendlyPos="true" roadsideCapacity="50" /><parkingArea id="pa_e_n5_4_n5_5" lane="e_n5_4_n5_5_1" startPos="2.00" endPos="185.60" friendlyPos="true" roadsideCapacity="54" /><parkingArea id="pa_e_n5_5_n4_5" lane="e_n5_5_n4_5_1" startPos="2.00" endPos="185.60" friendlyPos="true" roadsideCapacity="45" /><parkingArea id="pa_e_n5_5_n5_4" lane="e_n5_5_n5_4_1" startPos="2.00" endPos="185.60" friendlyPos="true" roadsideCapacity="51" /><parkingArea id="pa_e_n_zip1_n3_2" lane="e_n_zip1_n3_2_1" startPos="2.00" endPos="86.45" friendlyPos="true" roadsideCapacity="125" /><parkingArea id="pa_e_ra_e_n2_4" lane="e_ra_e_n2_4_1" startPos="2.00" endPos="172.15" friendlyPos="true" roadsideCapacity="33" /><parkingArea id="pa_e_ra_e_ra_n" lane="e_ra_e_ra_n_1" startPos="2.00" endPos="11.91" friendlyPos="true" roadsideCapacity="119" /><parkingArea id="pa_e_ra_n_n1_5" lane="e_ra_n_n1_5_1" startPos="2.00" endPos="172.15" friendlyPos="true" roadsideCapacity="51" /><parkingArea id="pa_e_ra_n_ra_w" lane="e_ra_n_ra_w_1" startPos="2.00" endPos="11.91" friendlyPos="true" roadsideCapacity="104" /><parkingArea id="pa_e_ra_s_n1_3" lane="e_ra_s_n1_3_1" startPos="2.00" endPos="164.25" friendlyPos="true" roadsideCapacity="90" /><parkingArea id="pa_e_ra_s_ra_e" lane="e_ra_s_ra_e_1" startPos="2.00" endPos="11.91" friendlyPos="true" roadsideCapacity="112" /><parkingArea id="pa_e_ra_w_n0_4" lane="e_ra_w_n0_4_1" startPos="2.00" endPos="172.15" friendlyPos="true" roadsideCapacity="53" /><parkingArea id="pa_e_ra_w_ra_s" lane="e_ra_w_ra_s_1" startPos="2.00" endPos="11.91" friendlyPos="true" roadsideCapacity="130" /><parkingArea id="pa_e_ramp1_zip1" lane="e_ramp1_zip1_1" startPos="2.00" endPos="94.00" friendlyPos="true" roadsideCapacity="81" /></additional>