<?xml version="1.0" encoding="UTF-8"?>

<!-- generated on 2026-07-08 15:02:44 by Eclipse SUMO duarouter Version 1.20.0
<configuration xmlns:xsi="http://www.w3.org/2001/XMLSchema-instance" xsi:noNamespaceSchemaLocation="http://sumo.dlr.de/xsd/duarouterConfiguration.xsd">

    <input>
        <net-file value="city.net.xml"/>
        <route-files value="city.trips.xml"/>
    </input>

    <output>
        <output-file value="city.rou.xml"/>
        <named-routes value="true"/>
    </output>

    <report>
        <ignore-errors value="true"/>
    </report>

    <random_number>
        <seed value="42"/>
    </random_number>

</configuration>
-->

<routes xmlns:xsi="http://www.w3.org/2001/XMLSchema-instance" xsi:noNamespaceSchemaLocation="http://sumo.dlr.de/xsd/routes_file.xsd">
    <vType id="DEFAULT_VEHTYPE" vClass="passenger" sigma="0"/>
    <route id="r0" edges="P15P16 P16P15 P15P14 P14P13 P13P12 P12P11 P11P10 P10P9 P9P8 P8P7 P7P6 P6P5 P5O5 O5N5 N5M5 M5L5 L5K5 K5J5 J5I5 I5H5 H5G5 G5F5 F5E5 E5D5 D5C5 C5B5 B5A5 A5A4"/>
    <vehicle id="0" type="DEFAULT_VEHTYPE" depart="0.00" route="r0"/>
    <route id="r1" edges="G3G2 G2G1 G1F1 F1G1"/>
    <vehicle id="1" type="DEFAULT_VEHTYPE" depart="1.24" route="r1"/>
    <route id="r2" edges="R21R20 R20R19 R19R18 R18R17 R17R16 R16R15 R15R14 R14R13 R13R12 R12Q12 Q12R12"/>
    <vehicle id="2" type="DEFAULT_VEHTYPE" depart="2.49" route="r2"/>
    <route id="r3" edges="V14U14 U14T14 T14S14 S14R14 R14Q14 Q14P14 P14O14 O14N14 N14M14 M14L14 L14K14 K14J14 J14I14 I14H14 H14G14 G14F14 F14E14 E14D14 D14C14 C14C15 C15C16 C16B16"/>
    <vehicle id="3" type="DEFAULT_VEHTYPE" depart="3.73" route="r3"/>
    <route id="r4" edges="K13J13 J13I13 I13I12 I12I11 I11I10 I10I9 I9I8 I8H8 H8G8 G8F8 F8E8 E8D8 D8C8 C8B8 B8A8 A8A9"/>
    <vehicle id="4" type="DEFAULT_VEHTYPE" depart="4.98" route="r4"/>
    <route id="r5" edges="F18F17 F17F16 F16F15 F15F14 F14F13 F13F12 F12G12 G12H12 H12I12 I12J12 J12K12 K12L12 L12M12 M12L12"/>
    <vehicle id="5" type="DEFAULT_VEHTYPE" depart="6.22" route="r5"/>
    <route id="r6" edges="A6A5 A5A6 A6A7 A7A8 A8B8 B8C8 C8D8 D8E8 E8E7"/>
    <vehicle id="6" type="DEFAULT_VEHTYPE" depart="7.47" route="r6"/>
    <route id="r7" edges="P20P19 P19O19 O19N19 N19N18 N18N17 N17N16 N16N15 N15N14 N14N13 N13N12 N12N11 N11N10 N10N9"/>
    <vehicle id="7" type="DEFAULT_VEHTYPE" depart="8.71" route="r7"/>
    <route id="r8" edges="F19F18 F18F17 F17F16 F16F15 F15F14 F14F13 F13F12 F12F11 F11G11 G11H11 H11I11 I11J11 J11K11 K11L11 L11M11 M11N11 N11O11 O11O12"/>
    <vehicle id="8" type="DEFAULT_VEHTYPE" depart="9.96" route="r8"/>
    <route id="r9" edges="T15T16 T16T15 T15T14 T14S14 S14R14 R14Q14 Q14P14 P14O14 O14N14 N14M14 M14L14 L14K14 K14J14 J14I14 I14H14 H14G14 G14F14 F14E14 E14D14 D14C14 C14B14 B14A14 A14A13"/>
    <vehicle id="9" type="DEFAULT_VEHTYPE" depart="11.20" route="r9"/>
    <route id="r10" edges="T13T14 T14T15 T15T16 T16T17 T17T18 T18T19 T19T20 T20T21 T21T22 T22T23 T23S23 S23R23 R23Q23 Q23R23"/>
    <vehicle id="10" type="DEFAULT_VEHTYPE" depart="12.45" route="r10"/>
    <route id="r11" edges="I15H15 H15G15 G15G14 G14G13 G13G12 G12G11 G11G10 G10G9 G9G8 G8G7 G7F7 F7E7 E7D7 D7E7"/>
    <vehicle id="11" type="DEFAULT_VEHTYPE" depart="13.69" route="r11"/>
    <route id="r12" edges="W3X3 X3W3 W3V3 V3U3 U3T3 T3S3 S3R3 R3Q3 Q3P3 P3O3 O3N3 N3M3 M3L3 L3K3 K3J3 J3I3 I3I4 I4I5 I5I6 I6I7 I7I8 I8I9 I9I10 I10I11 I11I12 I12I13 I13H13"/>
    <vehicle id="12" type="DEFAULT_VEHTYPE" depart="14.94" route="r12"/>
    <route id="r13" edges="C19C18 C18C19 C19C20 C20C21"/>
    <vehicle id="13" type="DEFAULT_VEHTYPE" depart="16.18" route="r13"/>
    <route id="r14" edges="U13T13 T13S13 S13R13 R13Q13 Q13P13 P13O13 O13O14 O14O15 O15O16 O16O17 O17O18 O18O19 O19O20"/>
    <vehicle id="14" type="DEFAULT_VEHTYPE" depart="17.43" route="r14"/>
    <route id="r15" edges="T14T13 T13S13 S13R13 R13R14 R14R15 R15R16 R16R17 R17R18 R18R19"/>
    <vehicle id="15" type="DEFAULT_VEHTYPE" depart="18.67" route="r15"/>
    <route id="r16" edges="M6M5 M5M6 M6M7 M7M8 M8M9 M9M10 M10M11 M11M12 M12N12 N12O12 O12P12 P12Q12 Q12R12 R12S12 S12T12 T12U12 U12V12 V12W12 W12X12 X12X13"/>
    <vehicle id="16" type="DEFAULT_VEHTYPE" depart="19.92" route="r16"/>
    <route id="r17" edges="J12J13 J13J14 J14K14 K14L14 L14M14 M14N14 N14N13"/>
    <vehicle id="17" type="DEFAULT_VEHTYPE" depart="21.16" route="r17"/>
    <route id="r18" edges="T3U3 U3T3 T3S3 S3R3 R3Q3 Q3P3 P3O3 O3O4 O4P4"/>
    <vehicle id="18" type="DEFAULT_VEHTYPE" depart="22.41" route="r18"/>
    <route id="r19" edges="U1V1 V1U1 U1T1 T1S1 S1R1 R1Q1 Q1P1 P1O1 O1N1 N1N2 N2N3 N3N4 N4N5 N5N6"/>
    <vehicle id="19" type="DEFAULT_VEHTYPE" depart="23.65" route="r19"/>
    <route id="r20" edges="Q5Q4 Q4P4 P4O4 O4N4 N4M4 M4L4 L4K4 K4J4 J4I4 I4H4 H4G4 G4F4 F4E4 E4D4 D4C4 C4B4 B4B5 B5B6 B6B7 B7B8 B8B9 B9B10 B10B11 B11B12 B12B13 B13B14 B14B15 B15B16 B16B17 B17A17"/>
    <vehicle id="20" type="DEFAULT_VEHTYPE" depart="24.90" route="r20"/>
    <route id="r21" edges="F22F23 F23G23 G23H23 H23H22 H22H21 H21H20 H20H19 H19H18 H18H17 H17H16 H16H15 H15H14 H14H13 H13H12 H12H11 H11H10 H10H11"/>
    <vehicle id="21" type="DEFAULT_VEHTYPE" depart="26.14" route="r21"/>
    <route id="r22" edges="C12C11 C11C10 C10C9 C9C8 C8C7 C7C6 C6C5 C5C4 C4C3 C3D3 D3E3 E3F3 F3F4"/>
    <vehicle id="22" type="DEFAULT_VEHTYPE" depart="27.38" route="r22"/>
    <route id="r23" edges="C23B23 B23C23 C23D23 D23E23 E23F23 F23G23 G23G22 G22G21 G21G20 G20G19 G19G18 G18G17 G17G16 G16G15 G15G14 G14G13 G13G12 G12G11 G11G10 G10G9 G9G8 G8G7 G7G6 G6G5 G5G4 G4H4"/>
    <vehicle id="23" type="DEFAULT_VEHTYPE" depart="28.63" route="r23"/>
    <route id="r24" edges="P13P14 P14P13 P13P12 P12P11 P11P10 P10P9 P9P8 P8P7 P7P6 P6P5 P5O5 O5N5 N5M5 M5L5 L5K5 K5J5 J5I5 I5J5"/>
    <vehicle id="24" type="DEFAULT_VEHTYPE" depart="29.87" route="r24"/>
    <route id="r25" edges="I8J8 J8I8 I8H8 H8G8 G8F8 F8F9 F9F10 F10F11 F11F12 F12F13 F13F12"/>
    <vehicle id="25" type="DEFAULT_VEHTYPE" depart="31.12" route="r25"/>
    <route id="r26" edges="G20G21 G21H21 H21I21 I21J21 J21K21 K21L21 L21M21 M21N21 N21O21 O21P21 P21Q21 Q21R21 R21S21 S21T21 T21U21 U21V21 V21W21 W21W20 W20W19 W19W18 W18W17 W17W16 W16W15 W15W14"/>
    <vehicle id="26" type="DEFAULT_VEHTYPE" depart="32.36" route="r26"/>
    <route id="r27" edges="P1P0 P0O0 O0O1 O1O2 O2O3 O3O4 O4O5 O5O6 O6O7 O7O8 O8O9 O9O10 O10O11 O11O12 O12O13 O13O14 O14O15 O15O16 O16O17 O17O18 O18O19 O19O20 O20O21 O21O20"/>
    <vehicle id="27" type="DEFAULT_VEHTYPE" depart="33.61" route="r27"/>
    <route id="r28" edges="E15E16 E16E17 E17E18 E18F18 F18G18 G18H18 H18I18 I18J18 J18K18 K18L18 L18M18 M18N18 N18O18 O18P18 P18Q18 Q18R18 R18Q18"/>
    <vehicle id="28" type="DEFAULT_VEHTYPE" depart="34.85" route="r28"/>
    <route id="r29" edges="E11E10 E10E11 E11E12 E12E13 E13F13 F13G13 G13H13 H13I13 I13J13 J13I13"/>
    <vehicle id="29" type="DEFAULT_VEHTYPE" depart="36.10" route="r29"/>
    <route id="r30" edges="X2W2 W2V2 V2U2 U2T2 T2S2 S2R2 R2Q2 Q2P2 P2P3 P3P4 P4P5 P5P6 P6P7 P7P8 P8P9 P9P10 P10P11 P11P12 P12P13 P13P14 P14P15 P15P16 P16O16"/>
    <vehicle id="30" type="DEFAULT_VEHTYPE" depart="37.34" route="r30"/>
    <route id="r31" edges="N17M17 M17N17 N17O17 O17P17 P17Q17 Q17P17"/>
    <vehicle id="31" type="DEFAULT_VEHTYPE" depart="38.59" route="r31"/>
    <route id="r32" edges="U10U9 U9U8 U8U7 U7U6 U6U5 U5U4 U4U3 U3U2 U2U1 U1T1 T1S1 S1S2"/>
    <vehicle id="32" type="DEFAULT_VEHTYPE" depart="39.83" route="r32"/>
    <route id="r33" edges="F23E23 E23D23 D23C23 C23B23 B23B22 B22B21 B21B20 B20B19 B19B18 B18B17 B17B16 B16B15 B15B14 B14B13 B13B12 B12B11 B11B10 B10B9 B9B8 B8B7 B7B6 B6B5 B5B4 B4B3 B3B2 B2B1 B1B0 B0A0"/>
    <vehicle id="33" type="DEFAULT_VEHTYPE" depart="41.08" route="r33"/>
    <route id="r34" edges="H2G2 G2G3 G3G4 G4G5 G5G6 G6G7 G7G8 G8G9 G9G10 G10G11 G11G12 G12G13 G13G14 G14G15 G15G16 G16G17 G17G18 G18G19 G19G20 G20G21 G21F21"/>
    <vehicle id="34" type="DEFAULT_VEHTYPE" depart="42.32" route="r34"/>
    <route id="r35" edges="F14E14 E14F14 F14G14 G14H14 H14I14 I14J14 J14K14 K14L14 L14M14 M14N14 N14O14 O14P14 P14Q14 Q14R14 R14S14 S14T14 T14U14 U14V14 V14W14 W14W15 W15W16 W16W17 W17W18 W18W19"/>
    <vehicle id="35" type="DEFAULT_VEHTYPE" depart="43.57" route="r35"/>
    <route id="r36" edges="U6U5 U5T5 T5T6 T6T7 T7T8 T8T9 T9T10 T10T11 T11T12 T12T13 T13T14 T14T15 T15T16 T16T17 T17T18 T18T19 T19T20 T20T21 T21T22 T22T23 T23S23 S23R23 R23Q23 Q23P23 P23O23 O23N23 N23M23 M23L23 L23K23 K23J23 J23I23 I23H23 H23H22"/>
    <vehicle id="36" type="DEFAULT_VEHTYPE" depart="44.81" route="r36"/>
    <route id="r37" edges="P23Q23 Q23P23 P23O23 O23N23 N23M23 M23L23 L23K23 K23J23 J23J22 J22J21 J21I21"/>
    <vehicle id="37" type="DEFAULT_VEHTYPE" depart="46.06" route="r37"/>
    <route id="r38" edges="V3W3 W3V3 V3U3 U3T3 T3S3 S3R3 R3Q3 Q3P3 P3O3 O3N3 N3M3 M3L3 L3L4 L4L5 L5L6 L6L7 L7L8 L8L9 L9L10 L10K10"/>
    <vehicle id="38" type="DEFAULT_VEHTYPE" depart="47.30" route="r38"/>
    <route id="r39" edges="G1G0 G0G1 G1G2 G2G3 G3G4 G4G5 G5G6 G6G7 G7G8 G8G9 G9G10 G10G11"/>
    <vehicle id="39" type="DEFAULT_VEHTYPE" depart="48.55" route="r39"/>
    <route id="r40" edges="N19N20 N20N19 N19M19 M19L19 L19K19 K19J19 J19I19 I19H19 H19G19 G19G18"/>
    <vehicle id="40" type="DEFAULT_VEHTYPE" depart="49.79" route="r40"/>
    <route id="r41" edges="N9N8 N8N9 N9N10 N10N11 N11N12 N12N13 N13N14 N14N15 N15N16 N16N17 N17O17 O17P17 P17Q17 Q17R17 R17S17 S17T17 T17U17 U17V17 V17V16"/>
    <vehicle id="41" type="DEFAULT_VEHTYPE" depart="51.04" route="r41"/>
    <route id="r42" edges="J23I23 I23H23 H23G23 G23G22 G22G21 G21G20 G20G19 G19G18 G18F18 F18G18"/>
    <vehicle id="42" type="DEFAULT_VEHTYPE" depart="52.28" route="r42"/>
    <route id="r43" edges="X8W8 W8V8 V8U8 U8T8 T8S8 S8R8 R8Q8 Q8P8 P8O8 O8N8 N8M8 M8M9 M9M10 M10M11 M11M12 M12M13 M13M14 M14M15"/>
    <vehicle id="43" type="DEFAULT_VEHTYPE" depart="53.52" route="r43"/>
    <route id="r44" edges="C18C17 C17B17 B17C17"/>
    <vehicle id="44" type="DEFAULT_VEHTYPE" depart="54.77" route="r44"/>
    <route id="r45" edges="C6B6 B6B7 B7B8 B8B9 B9C9 C9D9 D9E9 E9F9 F9G9 G9H9 H9I9 I9J9 J9K9 K9L9 L9M9 M9N9 N9O9 O9P9"/>
    <vehicle id="45" type="DEFAULT_VEHTYPE" depart="56.01" route="r45"/>
    <route id="r46" edges="S6S7 S7S8 S8S9 S9S10 S10S11 S11S12 S12S13 S13R13 R13Q13 Q13P13 P13O13 O13N13 N13M13 M13L13 L13K13 K13K12"/>
    <vehicle id="46" type="DEFAULT_VEHTYPE" depart="57.26" route="r46"/>
    <route id="r47" edges="B4A4 A4A5 A5A6 A6A7 A7A8 A8A9 A9A10 A10A11 A11A12 A12A13 A13A14 A14B14 B14C14 C14D14 D14E14 E14F14 F14G14 G14H14 H14I14 I14J14 J14J13"/>
    <vehicle id="47" type="DEFAULT_VEHTYPE" depart="58.50" route="r47"/>
    <route id="r48" edges="X7W7 W7V7 V7V6 V6V5 V5V4 V4V3 V3V2 V2U2 U2T2 T2S2 S2R2 R2Q2 Q2P2 P2O2 O2N2 N2M2 M2M3"/>
    <vehicle id="48" type="DEFAULT_VEHTYPE" depart="59.75" route="r48"/>
    <route id="r49" edges="X11X10 X10X9 X9X8 X8X7 X7X6 X6X5 X5X4 X4X3 X3X2 X2X1 X1W1 W1V1 V1U1 U1U0"/>
    <vehicle id="49" type="DEFAULT_VEHTYPE" depart="60.99" route="r49"/>
    <route id="r50" edges="A17B17 B17C17 C17D17 D17E17 E17F17 F17G17 G17H17 H17I17 I17J17 J17K17 K17L17 L17M17 M17N17 N17O17 O17P17 P17Q17 Q17R17 R17R16 R16R15 R15R14 R14R13 R13R14"/>
    <vehicle id="50" type="DEFAULT_VEHTYPE" depart="62.24" route="r50"/>
    <route id="r51" edges="Q15Q16 Q16Q15 Q15Q14 Q14Q13 Q13Q12 Q12Q11 Q11Q10 Q10Q9 Q9Q8 Q8Q7 Q7Q6 Q6P6 P6O6 O6N6 N6M6 M6N6"/>
    <vehicle id="51" type="DEFAULT_VEHTYPE" depart="63.48" route="r51"/>
    <route id="r52" edges="G20G21 G21H21 H21I21 I21J21 J21K21 K21L21 L21M21 M21N21 N21O21 O21P21 P21P20 P20P19 P19P18 P18P17 P17P16 P16P17"/>
    <vehicle id="52" type="DEFAULT_VEHTYPE" depart="64.73" route="r52"/>
    <route id="r53" edges="C7B7 B7C7 C7D7 D7E7 E7F7 F7G7 G7H7 H7I7 I7J7 J7K7 K7K6 K6K5 K5K4 K4K3 K3K2 K2K1 K1J1"/>
    <vehicle id="53" type="DEFAULT_VEHTYPE" depart="65.97" route="r53"/>
    <route id="r54" edges="K7L7 L7M7 M7N7 N7O7 O7P7 P7Q7 Q7R7 R7S7 S7T7 T7U7 U7V7 V7W7 W7W6 W6W5 W5W4 W4W3 W3W2 W2V2"/>
    <vehicle id="54" type="DEFAULT_VEHTYPE" depart="67.22" route="r54"/>
    <route id="r55" edges="U5V5 V5U5 U5T5 T5S5 S5R5 R5Q5 Q5P5 P5O5 O5N5 N5M5 M5L5 L5K5 K5J5 J5I5 I5H5 H5G5 G5G6 G6G7 G7G8 G8G9 G9G10 G10G11 G11G12 G12G13 G13G14 G14G15 G15G16 G16G17 G17G18 G18G19 G19G20"/>
    <vehicle id="55" type="DEFAULT_VEHTYPE" depart="68.46" route="r55"/>
    <route id="r56" edges="M0M1 M1M2 M2M3 M3M4 M4M5 M5M6 M6M7 M7M8 M8M9 M9M10 M10M11 M11M12 M12M13 M13M14 M14M15 M15M16 M16M17 M17M18 M18M19 M19L19 L19K19 K19J19 J19I19 I19H19 H19G19 G19F19 F19E19 E19F19"/>
    <vehicle id="56" type="DEFAULT_VEHTYPE" depart="69.71" route="r56"/>
    <route id="r57" edges="V2W2 W2V2 V2V3 V3U3 U3T3"/>
    <vehicle id="57" type="DEFAULT_VEHTYPE" depart="70.95" route="r57"/>
    <route id="r58" edges="H15H14 H14H15 H15I15 I15J15 J15K15 K15L15 L15M15 M15N15 N15O15 O15P15 P15P14"/>
    <vehicle id="58" type="DEFAULT_VEHTYPE" depart="72.20" route="r58"/>
    <route id="r59" edges="O21O20 O20O19 O19O18 O18O17 O17O16 O16O15 O15O14 O14O13 O13O12 O12O11 O11O10 O10O9 O9O8 O8O7 O7O6 O6N6 N6M6 M6L6 L6K6 K6J6 J6I6 I6H6 H6G6 G6F6 F6E6 E6D6 D6D5"/>
    <vehicle id="59" type="DEFAULT_VEHTYPE" depart="73.44" route="r59"/>
    <route id="r60" edges="S13R13 R13Q13 Q13Q12 Q12Q11 Q11Q10 Q10Q9 Q9Q8 Q8P8 P8O8 O8N8 N8M8 M8L8"/>
    <vehicle id="60" type="DEFAULT_VEHTYPE" depart="74.69" route="r60"/>
    <route id="r61" edges="S21R21 R21Q21 Q21P21 P21O21 O21N21 N21M21 M21M20 M20M19 M19M18 M18M17 M17M16 M16M15 M15M14 M14M13 M13M12 M12M11 M11M10 M10M9 M9M8 M8M7 M7M6 M6M5 M5M4 M4M3 M3M2"/>
    <vehicle id="61" type="DEFAULT_VEHTYPE" depart="75.93" route="r61"/>
    <route id="r62" edges="A0B0 B0C0 C0D0 D0E0 E0F0 F0G0 G0H0 H0H1 H1H2 H2H3 H3H4 H4H5 H5H6 H6I6"/>
    <vehicle id="62" type="DEFAULT_VEHTYPE" depart="77.18" route="r62"/>
    <route id="r63" edges="A22B22 B22C22 C22D22 D22E22 E22F22 F22G22 G22H22 H22I22 I22J22 J22K22 K22L22 L22M22 M22N22 N22O22 O22P22 P22Q22 Q22R22 R22S22 S22T22 T22U22 U22V22 V22W22 W22W21 W21W20 W20W19 W19W18 W18W17 W17W16 W16W15 W15W14 W14W13 W13W12 W12W11 W11V11"/>
    <vehicle id="63" type="DEFAULT_VEHTYPE" depart="78.42" route="r63"/>
    <route id="r64" edges="U7U8 U8U7 U7U6 U6U5 U5T5 T5S5"/>
    <vehicle id="64" type="DEFAULT_VEHTYPE" depart="79.66" route="r64"/>
    <route id="r65" edges="H1H0 H0G0 G0F0 F0E0 E0D0 D0C0 C0B0 B0B1 B1B2 B2B3 B3B4 B4B5 B5B6 B6B7 B7B8 B8B9 B9B10 B10B11 B11B12 B12B13 B13B14 B14B15 B15B16 B16B17 B17B18 B18B19 B19B20 B20B21 B21B22 B22B23"/>
    <vehicle id="65" type="DEFAULT_VEHTYPE" depart="80.91" route="r65"/>
    <route id="r66" edges="U7T7 T7U7 U7V7 V7W7 W7W6 W6W5 W5W4 W4W3 W3W2 W2W1 W1X1"/>
    <vehicle id="66" type="DEFAULT_VEHTYPE" depart="82.15" route="r66"/>
    <route id="r67" edges="C15C16 C16D16 D16E16 E16F16 F16G16 G16H16 H16I16 I16J16 J16K16 K16L16 L16L15 L15L14 L14L13 L13L12 L12L11 L11L10 L10L9 L9L8 L8L7 L7L6 L6L5 L5L4 L4L3 L3L2 L2L1"/>
    <vehicle id="67" type="DEFAULT_VEHTYPE" depart="83.40" route="r67"/>
    <route id="r68" edges="B7A7 A7A8 A8A9 A9A10 A10A11 A11A12 A12B12 B12C12 C12D12 D12E12 E12F12 F12G12 G12H12 H12I12 I12J12 J12K12 K12L12 L12M12 M12N12 N12O12 O12P12 P12Q12 Q12R12 R12S12 S12R12"/>
    <vehicle id="68" type="DEFAULT_VEHTYPE" depart="84.64" route="r68"/>
    <route id="r69" edges="S14T14 T14S14 S14R14 R14Q14 Q14P14 P14O14 O14N14 N14M14 M14L14 L14K14 K14J14 J14I14 I14H14 H14G14 G14F14 F14E14 E14D14 D14D15 D15D16"/>
    <vehicle id="69" type="DEFAULT_VEHTYPE" depart="85.89" route="r69"/>
    <route id="r70" edges="L19K19 K19L19 L19M19 M19N19 N19N18 N18N17 N17N16 N16N15 N15N14 N14N13 N13M13"/>
    <vehicle id="70" type="DEFAULT_VEHTYPE" depart="87.13" route="r70"/>
    <route id="r71" edges="G1G2 G2G3 G3G4 G4H4 H4I4 I4J4 J4K4 K4L4 L4M4 M4N4 N4O4 O4P4 P4Q4 Q4R4 R4S4 S4T4 T4U4 U4T4"/>
    <vehicle id="71" type="DEFAULT_VEHTYPE" depart="88.38" route="r71"/>
    <route id="r72" edges="K13L13 L13K13 K13J13 J13I13 I13H13 H13G13 G13F13 F13F14 F14F15"/>
    <vehicle id="72" type="DEFAULT_VEHTYPE" depart="89.62" route="r72"/>
    <route id="r73" edges="M8L8 L8M8 M8N8 N8O8 O8P8 P8Q8 Q8R8 R8R9 R9R10 R10R11 R11R12 R12R13 R13R14 R14R15 R15R16 R16R17 R17R18 R18R19"/>
    <vehicle id="73" type="DEFAULT_VEHTYPE" depart="90.87" route="r73"/>
    <route id="r74" edges="E9E8 E8E9 E9E10 E10E11 E11E12 E12E13 E13E14 E14E15 E15E16 E16E17 E17E18 E18E19 E19E20 E20E21 E21F21 F21G21 G21H21 H21I21"/>
    <vehicle id="74" type="DEFAULT_VEHTYPE" depart="92.11" route="r74"/>
    <route id="r75" edges="X6X5 X5W5 W5V5 V5U5 U5T5 T5S5 S5R5 R5Q5 Q5P5 P5P6 P6P7 P7P8 P8P9 P9P10 P10P11 P11P12 P12P13 P13P14 P14P15 P15P16 P16P17 P17P18 P18P19 P19P20 P20P19"/>
    <vehicle id="75" type="DEFAULT_VEHTYPE" depart="93.36" route="r75"/>
    <route id="r76" edges="K21J21 J21K21 K21L21 L21M21 M21M20 M20M19 M19M18 M18N18"/>
    <vehicle id="76" type="DEFAULT_VEHTYPE" depart="94.60" route="r76"/>
    <route id="r77" edges="D11D12 D12D13 D13D14 D14D15 D15D16 D16D17 D17D18 D18D19 D19D20 D20E20 E20F20 F20G20"/>
    <vehicle id="77" type="DEFAULT_VEHTYPE" depart="95.85" route="r77"/>
    <route id="r78" edges="I13J13 J13K13 K13L13 L13M13 M13N13 N13O13 O13O12 O12O11 O11O10 O10P10"/>
    <vehicle id="78" type="DEFAULT_VEHTYPE" depart="97.09" route="r78"/>
    <route id="r79" edges="F2E2 E2E3 E3E4 E4E5 E5E6 E6E7 E7E8 E8E9 E9E10 E10E11 E11E12 E12E13 E13E14 E14E15 E15E16 E16E17 E17E18 E18E19 E19F19 F19F18"/>
    <vehicle id="79" type="DEFAULT_VEHTYPE" depart="98.34" route="r79"/>
    <route id="r80" edges="B8A8 A8A9 A9A10 A10A11 A11B11 B11C11 C11D11 D11E11 E11F11 F11G11 G11H11 H11I11 I11J11 J11K11 K11L11 L11M11 M11N11 N11O11 O11P11 P11O11"/>
    <vehicle id="80" type="DEFAULT_VEHTYPE" depart="99.58" route="r80"/>
    <route id="r81" edges="F23E23 E23F23 F23G23 G23H23 H23I23 I23J23 J23K23 K23L23 L23M23 M23N23 N23O23 O23P23 P23Q23 Q23R23 R23S23 S23T23 T23U23 U23V23 V23V22 V22V21 V21V20 V20V21"/>
    <vehicle id="81" type="DEFAULT_VEHTYPE" depart="100.83" route="r81"/>
    <route id="r82" edges="U19V19 V19V18 V18V17 V17V16 V16V15 V15V14 V14V13 V13V12 V12V11 V11V10 V10V9 V9V8 V8U8 U8T8 T8S8 S8R8 R8Q8 Q8P8 P8O8 O8N8 N8M8 M8L8 L8K8 K8J8 J8I8 I8H8 H8G8 G8F8 F8E8 E8D8 D8C8 C8B8 B8A8"/>
    <vehicle id="82" type="DEFAULT_VEHTYPE" depart="102.07" route="r82"/>
    <route id="r83" edges="F6F5 F5F6 F6F7 F7F8 F8F9 F9G9 G9H9 H9I9 I9J9 J9K9 K9L9 L9M9 M9N9 N9O9 O9P9 P9P10"/>
    <vehicle id="83" type="DEFAULT_VEHTYPE" depart="103.32" route="r83"/>
    <route id="r84" edges="F16E16 E16D16 D16D17 D17E17"/>
    <vehicle id="84" type="DEFAULT_VEHTYPE" depart="104.56" route="r84"/>
    <route id="r85" edges="W14W15 W15W14 W14W13 W13W12 W12W11 W11W10 W10W9 W9W8 W8W7 W7W6 W6W5 W5W4 W4W3 W3W2 W2V2 V2U2 U2T2 T2S2 S2R2 R2Q2 Q2P2 P2O2 O2N2 N2M2"/>
    <vehicle id="85" type="DEFAULT_VEHTYPE" depart="105.80" route="r85"/>
    <route id="r86" edges="L17L18 L18M18 M18N18 N18O18 O18P18 P18Q18 Q18R18 R18S18 S18S17 S17S16 S16S15 S15S14 S14S13 S13S12 S12S11 S11S10 S10S9 S9S8 S8S7 S7S6 S6S5 S5S4 S4S3 S3S2 S2S3"/>
    <vehicle id="86" type="DEFAULT_VEHTYPE" depart="107.05" route="r86"/>
    <route id="r87" edges="T14T13 T13T12 T12T11 T11T10 T10T9 T9T8 T8T7 T7T6 T6T5 T5T4 T4T3 T3S3 S3R3 R3Q3 Q3P3 P3O3 O3N3 N3M3 M3L3 L3K3 K3J3 J3I3 I3H3 H3G3 G3F3 F3E3 E3E4"/>
    <vehicle id="87" type="DEFAULT_VEHTYPE" depart="108.29" route="r87"/>
    <route id="r88" edges="C20D20 D20E20 E20F20 F20G20 G20H20 H20I20 I20J20 J20K20 K20K19 K19K18 K18J18"/>
    <vehicle id="88" type="DEFAULT_VEHTYPE" depart="109.54" route="r88"/>
    <route id="r89" edges="K14J14 J14K14 K14L14 L14L15"/>
    <vehicle id="89" type="DEFAULT_VEHTYPE" depart="110.78" route="r89"/>
    <route id="r90" edges="R18Q18 Q18Q17 Q17Q16 Q16Q15 Q15Q14 Q14Q13 Q13Q12 Q12Q11 Q11Q10 Q10R10"/>
    <vehicle id="90" type="DEFAULT_VEHTYPE" depart="112.03" route="r90"/>
    <route id="r91" edges="X20W20 W20V20 V20U20 U20T20 T20S20 S20R20 R20Q20 Q20P20 P20O20 O20N20 N20M20 M20L20 L20K20 K20J20 J20I20 I20H20 H20G20 G20F20 F20E20 E20D20 D20C20 C20C21 C21C22"/>
    <vehicle id="91" type="DEFAULT_VEHTYPE" depart="113.27" route="r91"/>
    <route id="r92" edges="J3I3 I3I4 I4I5 I5I6 I6I7 I7I8 I8I9 I9I10 I10I11 I11I12 I12I13 I13I14 I14I15"/>
    <vehicle id="92" type="DEFAULT_VEHTYPE" depart="114.52" route="r92"/>
    <route id="r93" edges="U1V1 V1U1 U1T1 T1S1 S1R1 R1Q1 Q1P1 P1O1 O1N1 N1M1 M1L1 L1K1 K1J1 J1I1 I1H1 H1G1 G1G2 G2G3 G3G4 G4G5 G5G6 G6G7 G7G8 G8G9 G9G10 G10G11 G11G12"/>
    <vehicle id="93" type="DEFAULT_VEHTYPE" depart="115.76" route="r93"/>
    <route id="r94" edges="E3E2 E2E3 E3E4 E4E5 E5F5 F5G5 G5H5 H5I5 I5J5 J5K5 K5J5"/>
    <vehicle id="94" type="DEFAULT_VEHTYPE" depart="117.01" route="r94"/>
    <route id="r95" edges="K13J13 J13I13 I13H13 H13G13 G13G12 G12G11 G11G10 G10G9 G9G8 G8G7 G7G6 G6G5 G5G4"/>
    <vehicle id="95" type="DEFAULT_VEHTYPE" depart="118.25" route="r95"/>
    <route id="r96" edges="G12F12 F12G12 G12H12 H12I12 I12J12 J12K12 K12L12 L12M12 M12N12 N12O12 O12P12 P12Q12 Q12R12 R12S12 S12T12 T12U12 U12V12 V12V11 V11V10 V10V9 V9V8 V8V9"/>
    <vehicle id="96" type="DEFAULT_VEHTYPE" depart="119.50" route="r96"/>
    <route id="r97" edges="K2J2 J2K2 K2L2 L2M2 M2N2 N2O2 O2P2 P2Q2 Q2R2 R2S2 S2T2 T2U2 U2U1 U1U2"/>
    <vehicle id="97" type="DEFAULT_VEHTYPE" depart="120.74" route="r97"/>
    <route id="r98" edges="N13N14 N14N15 N15N16 N16M16 M16L16 L16K16 K16J16 J16I16 I16H16 H16G16 G16F16 F16E16 E16D16 D16C16 C16B16 B16B17 B17B18 B18B19 B19B20"/>
    <vehicle id="98" type="DEFAULT_VEHTYPE" depart="121.99" route="r98"/>
    <route id="r99" edges="X9X10 X10X9 X9X8 X8X7 X7W7 W7V7 V7U7 U7T7 T7T6"/>
    <vehicle id="99" type="DEFAULT_VEHTYPE" depart="123.23" route="r99"/>
    <route id="r100" edges="X0X1 X1X0 X0W0 W0W1"/>
    <vehicle id="100" type="DEFAULT_VEHTYPE" depart="124.48" route="r100"/>
    <route id="r101" edges="U13U14 U14U13 U13T13 T13S13 S13R13 R13Q13 Q13P13 P13O13 O13N13 N13M13 M13L13 L13K13 K13J13 J13I13 I13H13 H13G13 G13F13 F13E13 E13D13"/>
    <vehicle id="101" type="DEFAULT_VEHTYPE" depart="125.72" route="r101"/>
    <route id="r102" edges="L2K2 K2J2 J2I2 I2H2 H2G2 G2F2 F2F3 F3F4 F4F5 F5F6 F6F7 F7F8 F8F9 F9F10 F10F11 F11F12 F12F13 F13F14 F14F15 F15F16"/>
    <vehicle id="102" type="DEFAULT_VEHTYPE" depart="126.97" route="r102"/>
    <route id="r103" edges="J2J1 J1I1 I1I2 I2I3 I3I4 I4I5 I5I6 I6I7 I7I8 I8I9 I9I10 I10I11 I11I12 I12I13 I13I14 I14I15 I15I16 I16I17 I17I18 I18I19 I19I20 I20I21 I21I22 I22I23 I23H23 H23G23 G23F23 F23E23 E23D23 D23C23 C23B23 B23A23"/>
    <vehicle id="103" type="DEFAULT_VEHTYPE" depart="128.21" route="r103"/>
    <route id="r104" edges="J12K12 K12L12 L12M12 M12N12 N12O12 O12P12 P12Q12 Q12R12 R12S12 S12T12 T12U12 U12V12 V12W12 W12X12 X12X13 X13X14 X14X15 X15X16 X16X17 X17X18 X18X19 X19X20 X20X21"/>
    <vehicle id="104" type="DEFAULT_VEHTYPE" depart="129.46" route="r104"/>
    <route id="r105" edges="G1G2 G2H2 H2I2 I2J2 J2K2 K2L2 L2M2 M2N2 N2O2 O2P2 P2Q2 Q2R2 R2S2 S2S1"/>
    <vehicle id="105" type="DEFAULT_VEHTYPE" depart="130.70" route="r105"/>
    <route id="r106" edges="K8K9 K9K10 K10K11 K11K12 K12K13 K13L13"/>
    <vehicle id="106" type="DEFAULT_VEHTYPE" depart="131.94" route="r106"/>
    <route id="r107" edges="W3X3 X3X4 X4X5 X5X6 X6X5"/>
    <vehicle id="107" type="DEFAULT_VEHTYPE" depart="133.19" route="r107"/>
    <route id="r108" edges="N16N17 N17O17 O17P17 P17Q17 Q17R17 R17R16 R16R15 R15R14 R14R13 R13R12 R12R11"/>
    <vehicle id="108" type="DEFAULT_VEHTYPE" depart="134.43" route="r108"/>
    <route id="r109" edges="D7D6 D6D7 D7D8 D8D9 D9D10 D10D11 D11D12 D12D13 D13D14 D14E14 E14F14 F14G14 G14H14 H14H15"/>
    <vehicle id="109" type="DEFAULT_VEHTYPE" depart="135.68" route="r109"/>
    <route id="r110" edges="X0W0 W0V0 V0U0 U0T0 T0S0 S0R0 R0Q0 Q0P0 P0O0 O0N0 N0N1 N1N2 N2N3 N3N4 N4N5 N5N6 N6N7"/>
    <vehicle id="110" type="DEFAULT_VEHTYPE" depart="136.92" route="r110"/>
    <route id="r111" edges="M9N9 N9O9 O9P9 P9Q9 Q9R9 R9R8 R8R7 R7R6 R6R5 R5S5"/>
    <vehicle id="111" type="DEFAULT_VEHTYPE" depart="138.17" route="r111"/>
    <route id="r112" edges="B22B21 B21B20 B20B19 B19B18 B18B17 B17B16 B16B15 B15B14 B14B13 B13B12 B12B11 B11B10 B10B9 B9C9 C9D9 D9E9 E9F9 F9G9 G9H9 H9I9 I9J9 J9K9 K9L9 L9M9 M9N9 N9N10"/>
    <vehicle id="112" type="DEFAULT_VEHTYPE" depart="139.41" route="r112"/>
    <route id="r113" edges="M10N10 N10O10 O10O11 O11O12 O12O13 O13O14 O14O15 O15P15 P15Q15 Q15R15 R15S15 S15T15 T15U15 U15V15"/>
    <vehicle id="113" type="DEFAULT_VEHTYPE" depart="140.66" route="r113"/>
    <route id="r114" edges="D8E8 E8F8 F8G8 G8H8 H8I8 I8J8 J8K8 K8L8 L8M8 M8N8 N8O8 O8P8 P8Q8 Q8R8 R8S8 S8T8 T8U8 U8V8 V8W8 W8W7 W7W6 W6W5 W5X5"/>
    <vehicle id="114" type="DEFAULT_VEHTYPE" depart="141.90" route="r114"/>
    <route id="r115" edges="C12C11 C11C12 C12C13 C13C14 C14C15 C15C16 C16C17 C17C18 C18C19 C19C20 C20C21 C21C22 C22D22 D22E22 E22F22"/>
    <vehicle id="115" type="DEFAULT_VEHTYPE" depart="143.15" route="r115"/>
    <route id="r116" edges="O14O15 O15P15 P15Q15 Q15Q14 Q14Q13 Q13Q12 Q12Q11 Q11R11"/>
    <vehicle id="116" type="DEFAULT_VEHTYPE" depart="144.39" route="r116"/>
    <route id="r117" edges="F4G4 G4F4 F4E4 E4D4 D4D5 D5D6 D6D7 D7D8 D8D9 D9D10 D10E10"/>
    <vehicle id="117" type="DEFAULT_VEHTYPE" depart="145.64" route="r117"/>
    <route id="r118" edges="V13U13 U13T13 T13S13 S13R13 R13Q13 Q13P13 P13O13 O13N13 N13M13 M13L13 L13K13 K13J13 J13I13 I13H13 H13H12 H12H11 H11H10 H10G10 G10F10"/>
    <vehicle id="118" type="DEFAULT_VEHTYPE" depart="146.88" route="r118"/>
    <route id="r119" edges="O14O13 O13O12 O12O11 O11O10 O10O9 O9O8 O8O7 O7O6 O6O5 O5O4"/>
    <vehicle id="119" type="DEFAULT_VEHTYPE" depart="148.13" route="r119"/>
    <route id="r120" edges="K11K12 K12L12 L12M12 M12N12 N12N11 N11N10 N10N9 N9M9"/>
    <vehicle id="120" type="DEFAULT_VEHTYPE" depart="149.37" route="r120"/>
    <route id="r121" edges="M20N20 N20O20 O20P20 P20Q20 Q20R20 R20S20 S20T20 T20U20 U20V20 V20W20 W20W19 W19W18 W18W17 W17W16 W16W15 W15W14 W14V14"/>
    <vehicle id="121" type="DEFAULT_VEHTYPE" depart="150.62" route="r121"/>
    <route id="r122" edges="F10F9 F9F10 F10F11 F11G11 G11H11 H11I11 I11J11 J11K11 K11L11 L11M11 M11N11 N11O11 O11P11 P11Q11 Q11R11 R11Q11"/>
    <vehicle id="122" type="DEFAULT_VEHTYPE" depart="151.86" route="r122"/>
    <route id="r123" edges="F6G6 G6G7 G7G8 G8G9 G9G10 G10G11 G11G12 G12G13 G13G14 G14G15 G15G16 G16G17 G17G18 G18G19 G19G20 G20G21 G21H21 H21I21 I21J21 J21I21"/>
    <vehicle id="123" type="DEFAULT_VEHTYPE" depart="153.11" route="r123"/>
    <route id="r124" edges="Q10P10 P10O10 O10N10 N10M10 M10L10 L10K10 K10J10 J10I10 I10H10 H10H11 H11H12 H12H13 H13H14 H14H15 H15H16 H16H15"/>
    <vehicle id="124" type="DEFAULT_VEHTYPE" depart="154.35" route="r124"/>
    <route id="r125" edges="H2H3 H3H4 H4H5 H5H6 H6H7 H7H8 H8I8 I8J8 J8K8 K8L8 L8M8 M8N8 N8O8 O8P8 P8Q8 Q8R8 R8Q8"/>
    <vehicle id="125" type="DEFAULT_VEHTYPE" depart="155.60" route="r125"/>
    <route id="r126" edges="B9A9 A9A8 A8A7 A7A6 A6A5 A5A4 A4A3 A3A2 A2A1 A1A0 A0B0 B0C0 C0D0 D0E0 E0F0 F0G0 G0H0 H0I0 I0J0 J0K0 K0L0 L0L1"/>
    <vehicle id="126" type="DEFAULT_VEHTYPE" depart="156.84" route="r126"/>
    <route id="r127" edges="X8X9 X9X8 X8X7 X7W7"/>
    <vehicle id="127" type="DEFAULT_VEHTYPE" depart="158.08" route="r127"/>
    <route id="r128" edges="B9B10 B10B11 B11B12 B12B13 B13B14 B14B15 B15C15 C15D15 D15E15 E15F15 F15F14"/>
    <vehicle id="128" type="DEFAULT_VEHTYPE" depart="159.33" route="r128"/>
    <route id="r129" edges="G1G2 G2G3 G3G4 G4G5 G5G6 G6G7 G7G8 G8G9 G9G10 G10G11 G11G12 G12G13 G13H13 H13I13 I13J13 J13K13 K13L13 L13M13 M13N13 N13O13 O13P13 P13Q13 Q13R13 R13S13 S13T13 T13U13 U13V13 V13W13 W13W12"/>
    <vehicle id="129" type="DEFAULT_VEHTYPE" depart="160.57" route="r129"/>
    <route id="r130" edges="U8U9 U9U8 U8U7 U7V7"/>
    <vehicle id="130" type="DEFAULT_VEHTYPE" depart="161.82" route="r130"/>
    <route id="r131" edges="I8I7 I7H7 H7G7 G7F7 F7E7 E7D7 D7D8 D8D9 D9C9"/>
    <vehicle id="131" type="DEFAULT_VEHTYPE" depart="163.06" route="r131"/>
    <route id="r132" edges="T6S6 S6R6 R6R5 R5R4 R4Q4 Q4R4"/>
    <vehicle id="132" type="DEFAULT_VEHTYPE" depart="164.31" route="r132"/>
    <route id="r133" edges="O22P22 P22Q22 Q22R22 R22S22 S22T22 T22U22 U22V22 V22W22 W22X22 X22W22"/>
    <vehicle id="133" type="DEFAULT_VEHTYPE" depart="165.55" route="r133"/>
    <route id="r134" edges="P22P23 P23O23 O23N23 N23M23 M23L23 L23K23 K23J23 J23I23 I23H23 H23G23 G23F23 F23E23 E23D23 D23C23 C23B23 B23A23 A23A22 A22A21 A21A20 A20A19 A19A18 A18A17 A17A16 A16A15 A15A14"/>
    <vehicle id="134" type="DEFAULT_VEHTYPE" depart="166.80" route="r134"/>
    <route id="r135" edges="T19U19 U19U18 U18U17 U17U16 U16T16 T16S16 S16R16 R16Q16 Q16P16 P16O16 O16N16 N16M16 M16L16 L16K16 K16J16 J16I16 I16H16 H16G16"/>
    <vehicle id="135" type="DEFAULT_VEHTYPE" depart="168.04" route="r135"/>
    <route id="r136" edges="P6O6 O6P6 P6Q6 Q6R6 R6S6 S6T6 T6U6 U6V6 V6W6 W6W7 W7W8 W8W9 W9W10 W10W11 W11W12 W12W13 W13W14 W14W15 W15W16 W16W17"/>
    <vehicle id="136" type="DEFAULT_VEHTYPE" depart="169.29" route="r136"/>
    <route id="r137" edges="D18E18 E18E17 E17E16 E16E15 E15E14 E14E13 E13E12 E12E11 E11E10 E10E9 E9D9 D9C9 C9B9"/>
    <vehicle id="137" type="DEFAULT_VEHTYPE" depart="170.53" route="r137"/>
    <route id="r138" edges="C4C5 C5C6 C6C7 C7C8 C8C9 C9C10 C10C11 C11C12 C12C13 C13C14 C14C15 C15D15 D15E15 E15F15 F15G15 G15H15 H15I15 I15J15 J15K15 K15L15 L15M15 M15N15 N15M15"/>
    <vehicle id="138" type="DEFAULT_VEHTYPE" depart="171.78" route="r138"/>
    <route id="r139" edges="G23H23 H23I23 I23J23 J23K23 K23L23 L23M23 M23N23 N23O23 O23O22 O22O21 O21O20 O20O19 O19O18 O18O17 O17O16 O16O15 O15O14 O14O13 O13O12 O12O11 O11O10 O10O9 O9O8 O8O7 O7O6 O6O5 O5O4 O4O3 O3O2 O2O1 O1N1"/>
    <vehicle id="139" type="DEFAULT_VEHTYPE" depart="173.02" route="r139"/>
    <route id="r140" edges="R11S11 S11S10 S10R10 R10Q10 Q10P10 P10O10 O10N10 N10M10 M10L10 L10K10 K10J10 J10I10 I10H10 H10G10 G10F10 F10E10"/>
    <vehicle id="140" type="DEFAULT_VEHTYPE" depart="174.27" route="r140"/>